version 2
run JoinManeuver-0-20210822-19:21:22-13259
attr configname JoinManeuver
attr datetime 20210822-19:21:22
attr experiment JoinManeuver
attr inifile omnetpp.ini
attr iterationvars "$nCars=4, $platoonSize=4, $nLanes=1, $caccXi=1, $caccOmegaN=0.2, $ploegH=0.5, $leaderHeadway=1.2, $leaderSpeed=100, $beaconInterval=0.1, $priority=2, $packetSize=200"
attr iterationvarsf nCars=4,platoonSize=4,nLanes=1,caccXi=1,caccOmegaN=0.2,ploegH=0.5,leaderHeadway=1.2,leaderSpeed=100,beaconInterval=0.1,priority=2,packetSize=200-
attr measurement "$nCars=4, $platoonSize=4, $nLanes=1, $caccXi=1, $caccOmegaN=0.2, $ploegH=0.5, $leaderHeadway=1.2, $leaderSpeed=100, $beaconInterval=0.1, $priority=2, $packetSize=200"
attr network Highway
attr processid 13259
attr repetition 0
attr replication #0
attr resultdir results
attr runnumber 0
attr seedset 0
itervar beaconInterval 0.1
itervar caccOmegaN 0.2
itervar caccXi 1
itervar leaderHeadway 1.2
itervar leaderSpeed 100
itervar nCars 4
itervar nLanes 1
itervar packetSize 200
itervar platoonSize 4
itervar ploegH 0.5
itervar priority 2
param *.manager.command "\"sumo-gui\""
param *.manager.ignoreGuiCommands false
param *.node[*].scenario_type "\"JoinManeuverScenario\""
param *.playgroundSizeX 65000m
param *.playgroundSizeY 25000m
param *.playgroundSizeZ 50m
param *.annotations.draw false
param *.obstacles.debug false
param *.world.useTorus false
param *.world.use2D false
param *.manager.updateInterval 0.01s
param *.manager.host "\"localhost\""
param *.manager.moduleType "\"org.car2x.plexe.PlatoonCar\""
param *.manager.moduleName "\"node\""
param *.manager.moduleDisplayString "\"\""
param *.manager.autoShutdown true
param *.manager.margin 25
param *.connectionManager.sendDirect true
param *.connectionManager.maxInterfDist 2600m
param *.connectionManager.drawMaxIntfDist false
param *.**.nic.mac1609_4.useServiceChannel false
param *.**.nic.mac1609_4.txPower 100mW
param *.**.nic.mac1609_4.bitrate 6Mbps
param *.**.nic.mac1609_4.useAcks true
param *.**.nic.mac1609_4.ackErrorRate 0.0
param *.**.nic.mac1609_4.frameErrorRate 0.0
param *.**.nic.phy80211p.minPowerLevel -94dBm
param *.**.nic.phy80211p.maxTXPower 100mW
param *.**.nic.phy80211p.useNoiseFloor true
param *.**.nic.phy80211p.noiseFloor -95dBm
param *.**.nic.phy80211p.decider "xmldoc(\"config.xml\")"
param *.**.nic.phy80211p.analogueModels "xmldoc(\"config.xml\")"
param *.**.nic.phy80211p.usePropagationDelay true
param *.node[*].mobility.x 0
param *.node[*].mobility.y 0
param *.node[*].mobility.z 1.895
param **.seed 0
param *.manager.configFile "\"./sumocfg/freeway.sumo.cfg\""
param *.manager.launchConfig "xmldoc(\"./sumocfg/freeway.launchd.xml\")"
param **.numberOfCars 4
param **.numberOfCarsPerPlatoon 4
param **.numberOfLanes 1
param **.controllerXi 1
param **.controllerOmegaN 0.2
param *.node[*].helper_type "\"PositionHelper\""
param *.node[*].scenario.caccC1 0.5
param *.node[*].scenario.caccXi 1
param *.node[*].scenario.caccOmegaN "0.2 Hz"
param *.node[*].scenario.caccSpacing "5 m"
param *.node[*].scenario.engineTau "0.5 s"
param *.node[*].scenario.ploegH 0.5s
param *.node[*].scenario.ploegKp 0.2
param *.node[*].scenario.ploegKd 0.7
param *.node[*].scenario.useRealisticEngine false
param **.numericController 0
param *.node[*].scenario.controller "\"CACC\""
param *.node[*].scenario.accHeadway "0.1 s"
param *.node[*].scenario.leaderHeadway 1.2s
param *.node[*].scenario.leaderSpeed 100kmph
param *.node[*].appl_type "\"GeneralPlatooningApp\""
param *.node[*].appl.joinManeuver "\"JoinAtBack\""
param *.node[*].appl.mergeManeuver "\"MergeAtBack\""
param *.node[*].protocol_type "\"SimplePlatooningBeaconing\""
param *.node[*].prot.beaconingInterval 0.1s
param *.node[*].prot.priority 2
param *.node[*].prot.packetSize 200
param **.traffic_type "\"JoinTrafficManager\""
param **.traffic.platoonInsertTime "1 s"
param **.traffic.platoonInsertSpeed 100kmph
param **.traffic.nCars 4
param **.traffic.platoonSize 4
param **.traffic.nLanes 1
param **.traffic.platooningVType "\"vtypeauto\""
param **.traffic.platoonInsertDistance "5 m"
param **.traffic.platoonInsertHeadway "0 s"
param **.traffic.platoonLeaderHeadway 1.2s

vector 0 Highway.node[0].appl distance ETV
vector 1 Highway.node[0].appl relativeSpeed ETV
vector 2 Highway.node[0].appl nodeId ETV
vector 3 Highway.node[0].appl acceleration ETV
vector 4 Highway.node[0].appl controllerAcceleration ETV
vector 5 Highway.node[0].appl speed ETV
vector 6 Highway.node[0].appl posx ETV
vector 7 Highway.node[0].appl posy ETV
vector 8 Highway.node[1].appl distance ETV
vector 9 Highway.node[1].appl relativeSpeed ETV
vector 10 Highway.node[1].appl nodeId ETV
vector 11 Highway.node[1].appl acceleration ETV
vector 12 Highway.node[1].appl controllerAcceleration ETV
vector 13 Highway.node[1].appl speed ETV
vector 14 Highway.node[1].appl posx ETV
vector 15 Highway.node[1].appl posy ETV
vector 16 Highway.node[2].appl distance ETV
vector 17 Highway.node[2].appl relativeSpeed ETV
vector 18 Highway.node[2].appl nodeId ETV
vector 19 Highway.node[2].appl acceleration ETV
vector 20 Highway.node[2].appl controllerAcceleration ETV
vector 21 Highway.node[2].appl speed ETV
vector 22 Highway.node[2].appl posx ETV
vector 23 Highway.node[2].appl posy ETV
vector 24 Highway.node[3].appl distance ETV
vector 25 Highway.node[3].appl relativeSpeed ETV
vector 26 Highway.node[3].appl nodeId ETV
vector 27 Highway.node[3].appl acceleration ETV
vector 28 Highway.node[3].appl controllerAcceleration ETV
vector 29 Highway.node[3].appl speed ETV
vector 30 Highway.node[3].appl posx ETV
vector 31 Highway.node[3].appl posy ETV
0	113	1.11	-1
1	113	1.11	0
2	113	1.11	0
3	113	1.11	-0.000358191
4	113	1.11	-0.00218518
5	113	1.11	27.78
6	113	1.11	37.9402
7	113	1.11	242.45
8	114	1.11	5
9	114	1.11	-1.84044e-05
10	114	1.11	1
11	114	1.11	0
12	114	1.11	0
13	114	1.11	27.78
14	114	1.11	28.9402
15	114	1.11	242.45
16	115	1.11	5
17	115	1.11	0
18	115	1.11	2
19	115	1.11	0
20	115	1.11	0
21	115	1.11	27.78
22	115	1.11	19.9402
23	115	1.11	242.45
24	116	1.11	5
25	116	1.11	0
26	116	1.11	3
27	116	1.11	0
28	116	1.11	0
29	116	1.11	27.78
30	116	1.11	10.9402
31	116	1.11	242.45
vector 32 Highway.node[3].prot frontDelay ETV
vector 33 Highway.node[3].prot frontDelayId ETV
vector 34 Highway.node[2].prot frontDelay ETV
vector 35 Highway.node[2].prot frontDelayId ETV
vector 36 Highway.node[1].prot leaderDelay ETV
vector 37 Highway.node[1].prot leaderDelayId ETV
vector 38 Highway.node[1].prot frontDelay ETV
vector 39 Highway.node[1].prot frontDelayId ETV
vector 40 Highway.node[2].prot leaderDelay ETV
vector 41 Highway.node[2].prot leaderDelayId ETV
vector 42 Highway.node[3].prot leaderDelay ETV
vector 43 Highway.node[3].prot leaderDelayId ETV
vector 44 Highway.node[0].prot nodeId ETV
vector 45 Highway.node[0].prot busyTime ETV
vector 46 Highway.node[0].prot collisions ETV
vector 47 Highway.node[1].prot nodeId ETV
vector 48 Highway.node[1].prot busyTime ETV
vector 49 Highway.node[1].prot collisions ETV
vector 50 Highway.node[2].prot nodeId ETV
vector 51 Highway.node[2].prot busyTime ETV
vector 52 Highway.node[2].prot collisions ETV
vector 53 Highway.node[3].prot nodeId ETV
vector 54 Highway.node[3].prot busyTime ETV
vector 55 Highway.node[3].prot collisions ETV
0	263	1.21	-1
0	413	1.31	-1
0	563	1.41	-1
0	713	1.51	-1
0	863	1.61	-1
0	1013	1.71	-1
0	1163	1.81	-1
0	1313	1.91	-1
0	1467	2.01	-1
0	1617	2.11	-1
0	1767	2.21	-1
0	1917	2.31	-1
0	2067	2.41	-1
0	2217	2.51	-1
0	2367	2.61	-1
0	2517	2.71	-1
0	2667	2.81	-1
0	2817	2.91	-1
0	2971	3.01	-1
1	263	1.21	0
1	413	1.31	0
1	563	1.41	0
1	713	1.51	0
1	863	1.61	0
1	1013	1.71	0
1	1163	1.81	0
1	1313	1.91	0
1	1467	2.01	0
1	1617	2.11	0
1	1767	2.21	0
1	1917	2.31	0
1	2067	2.41	0
1	2217	2.51	0
1	2367	2.61	0
1	2517	2.71	0
1	2667	2.81	0
1	2817	2.91	0
1	2971	3.01	0
2	263	1.21	0
2	413	1.31	0
2	563	1.41	0
2	713	1.51	0
2	863	1.61	0
2	1013	1.71	0
2	1163	1.81	0
2	1313	1.91	0
2	1467	2.01	0
2	1617	2.11	0
2	1767	2.21	0
2	1917	2.31	0
2	2067	2.41	0
2	2217	2.51	0
2	2367	2.61	0
2	2517	2.71	0
2	2667	2.81	0
2	2817	2.91	0
2	2971	3.01	0
3	263	1.21	-0.000681704
3	413	1.31	-0.00093487
3	563	1.41	-0.00112579
3	713	1.51	-0.00126221
3	863	1.61	-0.00135149
3	1013	1.71	-0.00140049
3	1163	1.81	-0.00141557
3	1313	1.91	-0.00140255
3	1467	2.01	-0.00136671
3	1617	2.11	-0.0013128
3	1767	2.21	-0.00124502
3	1917	2.31	-0.0011671
3	2067	2.41	-0.00108223
3	2217	2.51	-0.000993208
3	2367	2.61	-0.000902362
3	2517	2.71	-0.000811651
3	2667	2.81	-0.000722679
3	2817	2.91	-0.000636729
3	2971	3.01	-0.0005548
4	263	1.21	-0.00213419
4	413	1.31	-0.00205408
4	563	1.41	-0.00195152
4	713	1.51	-0.00183238
4	863	1.61	-0.00170178
4	1013	1.71	-0.00156412
4	1163	1.81	-0.00142314
4	1313	1.91	-0.00128196
4	1467	2.01	-0.00114315
4	1617	2.11	-0.00100877
4	1767	2.21	-0.000880447
4	1917	2.31	-0.000759381
4	2067	2.41	-0.000646445
4	2217	2.51	-0.000542204
4	2367	2.61	-0.000446965
4	2517	2.71	-0.000360819
4	2667	2.81	-0.000283678
4	2817	2.91	-0.000215307
4	2971	3.01	-0.000155357
5	263	1.21	27.7799
5	413	1.31	27.7798
5	563	1.41	27.7797
5	713	1.51	27.7796
5	863	1.61	27.7795
5	1013	1.71	27.7794
5	1163	1.81	27.7792
5	1313	1.91	27.7791
5	1467	2.01	27.7789
5	1617	2.11	27.7788
5	1767	2.21	27.7787
5	1917	2.31	27.7785
5	2067	2.41	27.7784
5	2217	2.51	27.7783
5	2367	2.61	27.7782
5	2517	2.71	27.7782
5	2667	2.81	27.7781
5	2817	2.91	27.778
5	2971	3.01	27.7779
6	263	1.21	40.7182
6	413	1.31	43.4962
6	563	1.41	46.2742
6	713	1.51	49.0521
6	863	1.61	51.8301
6	1013	1.71	54.608
6	1163	1.81	57.386
6	1313	1.91	60.1639
6	1467	2.01	62.9418
6	1617	2.11	65.7197
6	1767	2.21	68.4975
6	1917	2.31	71.2754
6	2067	2.41	74.0532
6	2217	2.51	76.8311
6	2367	2.61	79.6089
6	2517	2.71	82.3867
6	2667	2.81	85.1645
6	2817	2.91	87.9423
6	2971	3.01	90.7201
7	263	1.21	242.45
7	413	1.31	242.45
7	563	1.41	242.45
7	713	1.51	242.45
7	863	1.61	242.45
7	1013	1.71	242.45
7	1163	1.81	242.45
7	1313	1.91	242.45
7	1467	2.01	242.45
7	1617	2.11	242.45
7	1767	2.21	242.45
7	1917	2.31	242.45
7	2067	2.41	242.45
7	2217	2.51	242.45
7	2367	2.61	242.45
7	2517	2.71	242.45
7	2667	2.81	242.45
7	2817	2.91	242.45
7	2971	3.01	242.45
8	264	1.21	5
8	414	1.31	4.99999
8	564	1.41	4.99997
8	714	1.51	4.99996
8	864	1.61	4.99994
8	1014	1.71	4.99992
8	1164	1.81	4.9999
8	1314	1.91	4.99988
8	1468	2.01	4.99986
8	1618	2.11	4.99984
8	1768	2.21	4.99982
8	1918	2.31	4.9998
8	2068	2.41	4.99978
8	2218	2.51	4.99976
8	2368	2.61	4.99975
8	2518	2.71	4.99973
8	2668	2.81	4.99972
8	2818	2.91	4.99971
8	2972	3.01	4.99969
9	264	1.21	-6.64177e-05
9	414	1.31	-0.000108668
9	564	1.41	-0.000141747
9	714	1.51	-0.000166792
9	864	1.61	-0.000184985
9	1014	1.71	-0.000197375
9	1164	1.81	-0.00020455
9	1314	1.91	-0.000207455
9	1468	2.01	-0.000206581
9	1618	2.11	-0.000202844
9	1768	2.21	-0.000196962
9	1918	2.31	-0.000189097
9	2068	2.41	-0.000179826
9	2218	2.51	-0.000169655
9	2368	2.61	-0.00015895
9	2518	2.71	-0.000147955
9	2668	2.81	-0.000136808
9	2818	2.91	-0.000125559
9	2972	3.01	-0.000114298
10	264	1.21	1
10	414	1.31	1
10	564	1.41	1
10	714	1.51	1
10	864	1.61	1
10	1014	1.71	1
10	1164	1.81	1
10	1314	1.91	1
10	1468	2.01	1
10	1618	2.11	1
10	1768	2.21	1
10	1918	2.31	1
10	2068	2.41	1
10	2218	2.51	1
10	2368	2.61	1
10	2518	2.71	1
10	2668	2.81	1
10	2818	2.91	1
10	2972	3.01	1
11	264	1.21	-0.00020453
11	414	1.31	-0.000554877
11	564	1.41	-0.000832247
11	714	1.51	-0.00104351
11	864	1.61	-0.00119586
11	1014	1.71	-0.00130032
11	1164	1.81	-0.00136297
11	1314	1.91	-0.00139051
11	1468	2.01	-0.00138854
11	1618	2.11	-0.00135929
11	1768	2.21	-0.00131236
11	1918	2.31	-0.00125193
11	2068	2.41	-0.0011787
11	2218	2.51	-0.00109691
11	2368	2.61	-0.00101022
11	2518	2.71	-0.000921739
11	2668	2.81	-0.000834034
11	2818	2.91	-0.000749208
11	2972	3.01	-0.000665159
12	264	1.21	-0.00217285
12	414	1.31	-0.00213775
12	564	1.41	-0.0020631
12	714	1.51	-0.00195808
12	864	1.61	-0.00183085
12	1014	1.71	-0.00172846
12	1164	1.81	-0.00157681
12	1314	1.91	-0.00146105
12	1468	2.01	-0.00130536
12	1618	2.11	-0.00115331
12	1768	2.21	-0.00104775
12	1918	2.31	-0.000910733
12	2068	2.41	-0.000783914
12	2218	2.51	-0.000668494
12	2368	2.61	-0.000565227
12	2518	2.71	-0.000474485
12	2668	2.81	-0.000396326
12	2818	2.91	-0.00033054
12	2972	3.01	-0.000236741
13	264	1.21	27.78
13	414	1.31	27.78
13	564	1.41	27.7799
13	714	1.51	27.7798
13	864	1.61	27.7797
13	1014	1.71	27.7795
13	1164	1.81	27.7794
13	1314	1.91	27.7793
13	1468	2.01	27.7791
13	1618	2.11	27.779
13	1768	2.21	27.7789
13	1918	2.31	27.7787
13	2068	2.41	27.7786
13	2218	2.51	27.7785
13	2368	2.61	27.7784
13	2518	2.71	27.7783
13	2668	2.81	27.7782
13	2818	2.91	27.7781
13	2972	3.01	27.7781
14	264	1.21	31.7182
14	414	1.31	34.4962
14	564	1.41	37.2742
14	714	1.51	40.0522
14	864	1.61	42.8301
14	1014	1.71	45.6081
14	1164	1.81	48.3861
14	1314	1.91	51.164
14	1468	2.01	53.9419
14	1618	2.11	56.7198
14	1768	2.21	59.4977
14	1918	2.31	62.2756
14	2068	2.41	65.0535
14	2218	2.51	67.8313
14	2368	2.61	70.6092
14	2518	2.71	73.387
14	2668	2.81	76.1648
14	2818	2.91	78.9426
14	2972	3.01	81.7204
15	264	1.21	242.45
15	414	1.31	242.45
15	564	1.41	242.45
15	714	1.51	242.45
15	864	1.61	242.45
15	1014	1.71	242.45
15	1164	1.81	242.45
15	1314	1.91	242.45
15	1468	2.01	242.45
15	1618	2.11	242.45
15	1768	2.21	242.45
15	1918	2.31	242.45
15	2068	2.41	242.45
15	2218	2.51	242.45
15	2368	2.61	242.45
15	2518	2.71	242.45
15	2668	2.81	242.45
15	2818	2.91	242.45
15	2972	3.01	242.45
16	265	1.21	5
16	415	1.31	5
16	565	1.41	5
16	715	1.51	4.99999
16	865	1.61	4.99999
16	1015	1.71	4.99999
16	1165	1.81	4.99998
16	1315	1.91	4.99998
16	1469	2.01	4.99997
16	1619	2.11	4.99997
16	1769	2.21	4.99996
16	1919	2.31	4.99996
16	2069	2.41	4.99995
16	2219	2.51	4.99995
16	2369	2.61	4.99995
16	2519	2.71	4.99994
16	2669	2.81	4.99994
16	2819	2.91	4.99994
16	2973	3.01	4.99993
17	265	1.21	-3.11046e-06
17	415	1.31	-1.60333e-05
17	565	1.41	-2.6551e-05
17	715	1.51	-3.46454e-05
17	865	1.61	-4.07777e-05
17	1015	1.71	-4.50243e-05
17	1165	1.81	-4.76084e-05
17	1315	1.91	-4.87738e-05
17	1469	2.01	-4.8937e-05
17	1619	2.11	-4.7919e-05
17	1769	2.21	-4.61824e-05
17	1919	2.31	-4.41075e-05
17	2069	2.41	-4.14367e-05
17	2219	2.51	-3.84454e-05
17	2369	2.61	-3.53514e-05
17	2519	2.71	-3.23091e-05
17	2669	2.81	-2.94161e-05
17	2819	2.91	-2.67197e-05
17	2973	3.01	-2.41384e-05
18	265	1.21	2
18	415	1.31	2
18	565	1.41	2
18	715	1.51	2
18	865	1.61	2
18	1015	1.71	2
18	1165	1.81	2
18	1315	1.91	2
18	1469	2.01	2
18	1619	2.11	2
18	1769	2.21	2
18	1919	2.31	2
18	2069	2.41	2
18	2219	2.51	2
18	2369	2.61	2
18	2519	2.71	2
18	2669	2.81	2
18	2819	2.91	2
18	2973	3.01	2
19	265	1.21	-0.000102108
19	415	1.31	-0.000435534
19	565	1.41	-0.000739604
19	715	1.51	-0.000972324
19	865	1.61	-0.00114363
19	1015	1.71	-0.00126629
19	1165	1.81	-0.00134531
19	1315	1.91	-0.0013834
19	1469	2.01	-0.00139361
19	1619	2.11	-0.0013744
19	1769	2.21	-0.00133105
19	1919	2.31	-0.00127644
19	2069	2.41	-0.00120781
19	2219	2.51	-0.00112807
19	2369	2.61	-0.00104154
19	2519	2.71	-0.000951945
19	2669	2.81	-0.000862388
19	2819	2.91	-0.000775446
19	2973	3.01	-0.000692238
20	265	1.21	-0.0010837
20	415	1.31	-0.00214672
20	565	1.41	-0.00210899
20	715	1.51	-0.00199895
20	865	1.61	-0.00188684
20	1015	1.71	-0.00179156
20	1165	1.81	-0.00166078
20	1315	1.91	-0.00151097
20	1469	2.01	-0.00139783
20	1619	2.11	-0.00123575
20	1769	2.21	-0.00108868
20	1919	2.31	-0.000989758
20	2069	2.41	-0.00085101
20	2219	2.51	-0.000724237
20	2369	2.61	-0.000610726
20	2519	2.71	-0.000511245
20	2669	2.81	-0.000426122
20	2819	2.91	-0.000355318
20	2973	3.01	-0.000288496
21	265	1.21	27.78
21	415	1.31	27.78
21	565	1.41	27.7799
21	715	1.51	27.7798
21	865	1.61	27.7797
21	1015	1.71	27.7796
21	1165	1.81	27.7795
21	1315	1.91	27.7793
21	1469	2.01	27.7792
21	1619	2.11	27.779
21	1769	2.21	27.7789
21	1919	2.31	27.7788
21	2069	2.41	27.7787
21	2219	2.51	27.7785
21	2369	2.61	27.7784
21	2519	2.71	27.7783
21	2669	2.81	27.7782
21	2819	2.91	27.7782
21	2973	3.01	27.7781
22	265	1.21	22.7182
22	415	1.31	25.4962
22	565	1.41	28.2742
22	715	1.51	31.0522
22	865	1.61	33.8302
22	1015	1.71	36.6081
22	1165	1.81	39.3861
22	1315	1.91	42.164
22	1469	2.01	44.9419
22	1619	2.11	47.7199
22	1769	2.21	50.4977
22	1919	2.31	53.2756
22	2069	2.41	56.0535
22	2219	2.51	58.8314
22	2369	2.61	61.6092
22	2519	2.71	64.3871
22	2669	2.81	67.1649
22	2819	2.91	69.9427
22	2973	3.01	72.7205
23	265	1.21	242.45
23	415	1.31	242.45
23	565	1.41	242.45
23	715	1.51	242.45
23	865	1.61	242.45
23	1015	1.71	242.45
23	1165	1.81	242.45
23	1315	1.91	242.45
23	1469	2.01	242.45
23	1619	2.11	242.45
23	1769	2.21	242.45
23	1919	2.31	242.45
23	2069	2.41	242.45
23	2219	2.51	242.45
23	2369	2.61	242.45
23	2519	2.71	242.45
23	2669	2.81	242.45
23	2819	2.91	242.45
23	2973	3.01	242.45
24	266	1.21	5
24	416	1.31	5
24	566	1.41	5
24	716	1.51	5
24	866	1.61	5
24	1016	1.71	4.99999
24	1166	1.81	4.99999
24	1316	1.91	4.99999
24	1470	2.01	4.99999
24	1620	2.11	4.99998
24	1770	2.21	4.99998
24	1920	2.31	4.99998
24	2070	2.41	4.99997
24	2220	2.51	4.99997
24	2370	2.61	4.99997
24	2520	2.71	4.99996
24	2670	2.81	4.99996
24	2820	2.91	4.99996
24	2974	3.01	4.99996
25	266	1.21	-6.39488e-13
25	416	1.31	-2.80385e-06
25	566	1.41	-1.03739e-05
25	716	1.51	-1.66724e-05
25	866	1.61	-2.14136e-05
25	1016	1.71	-2.50143e-05
25	1166	1.81	-2.78573e-05
25	1316	1.91	-2.97229e-05
25	1470	2.01	-3.07004e-05
25	1620	2.11	-3.12848e-05
25	1770	2.21	-3.11311e-05
25	1920	2.31	-3.04692e-05
25	2070	2.41	-2.97866e-05
25	2220	2.51	-2.87058e-05
25	2370	2.61	-2.71124e-05
25	2520	2.71	-2.51961e-05
25	2670	2.81	-2.31035e-05
25	2820	2.91	-2.09416e-05
25	2974	3.01	-1.90336e-05
26	266	1.21	3
26	416	1.31	3
26	566	1.41	3
26	716	1.51	3
26	866	1.61	3
26	1016	1.71	3
26	1166	1.81	3
26	1316	1.91	3
26	1470	2.01	3
26	1620	2.11	3
26	1770	2.21	3
26	1920	2.31	3
26	2070	2.41	3
26	2220	2.51	3
26	2370	2.61	3
26	2520	2.71	3
26	2670	2.81	3
26	2820	2.91	3
26	2974	3.01	3
27	266	1.21	-0.000102108
27	416	1.31	-0.000364416
27	566	1.41	-0.000668348
27	716	1.51	-0.000917148
27	866	1.61	-0.00110276
27	1016	1.71	-0.00123413
27	1166	1.81	-0.00132051
27	1316	1.91	-0.00137112
27	1470	2.01	-0.00138552
27	1620	2.11	-0.00137171
27	1770	2.21	-0.00133728
27	1920	2.31	-0.00128299
27	2070	2.41	-0.00121608
27	2220	2.51	-0.00114204
27	2370	2.61	-0.00105965
27	2520	2.71	-0.000972483
27	2670	2.81	-0.000884077
27	2820	2.91	-0.00079738
27	2974	3.01	-0.000708952
28	266	1.21	-0.0010837
28	416	1.31	-0.00159829
28	566	1.41	-0.00208405
28	716	1.51	-0.00202689
28	866	1.61	-0.00191566
28	1016	1.71	-0.00180058
28	1166	1.81	-0.00167545
28	1316	1.91	-0.00156764
28	1470	2.01	-0.00140832
28	1620	2.11	-0.00126818
28	1770	2.21	-0.0011463
28	1920	2.31	-0.000996315
28	2070	2.41	-0.000876369
28	2220	2.51	-0.000773132
28	2370	2.61	-0.00065313
28	2520	2.71	-0.000547506
28	2670	2.81	-0.000456872
28	2820	2.91	-0.000381393
28	2974	3.01	-0.000280949
29	266	1.21	27.78
29	416	1.31	27.78
29	566	1.41	27.7799
29	716	1.51	27.7798
29	866	1.61	27.7797
29	1016	1.71	27.7796
29	1166	1.81	27.7795
29	1316	1.91	27.7794
29	1470	2.01	27.7792
29	1620	2.11	27.7791
29	1770	2.21	27.7789
29	1920	2.31	27.7788
29	2070	2.41	27.7787
29	2220	2.51	27.7786
29	2370	2.61	27.7785
29	2520	2.71	27.7784
29	2670	2.81	27.7783
29	2820	2.91	27.7782
29	2974	3.01	27.7781
30	266	1.21	13.7182
30	416	1.31	16.4962
30	566	1.41	19.2742
30	716	1.51	22.0522
30	866	1.61	24.8302
30	1016	1.71	27.6081
30	1166	1.81	30.3861
30	1316	1.91	33.164
30	1470	2.01	35.942
30	1620	2.11	38.7199
30	1770	2.21	41.4978
30	1920	2.31	44.2757
30	2070	2.41	47.0535
30	2220	2.51	49.8314
30	2370	2.61	52.6092
30	2520	2.71	55.3871
30	2670	2.81	58.1649
30	2820	2.91	60.9427
30	2974	3.01	63.7206
31	266	1.21	242.45
31	416	1.31	242.45
31	566	1.41	242.45
31	716	1.51	242.45
31	866	1.61	242.45
31	1016	1.71	242.45
31	1166	1.81	242.45
31	1316	1.91	242.45
31	1470	2.01	242.45
31	1620	2.11	242.45
31	1770	2.21	242.45
31	1920	2.31	242.45
31	2070	2.41	242.45
31	2220	2.51	242.45
31	2370	2.61	242.45
31	2520	2.71	242.45
31	2670	2.81	242.45
31	2820	2.91	242.45
31	2974	3.01	242.45
32	294	1.213888210146	0.099998180125
32	444	1.313886390271	0.099998180125
32	594	1.413884570396	0.099998180125
32	744	1.513882750521	0.099998180125
32	894	1.613880930646	0.099998180125
32	1044	1.713892110771	0.100011180125
32	1194	1.813890290895	0.099998180124
32	1344	1.913888471019	0.099998180124
32	1498	2.013886651143	0.099998180124
32	1648	2.113884831267	0.099998180124
32	1798	2.213883011391	0.099998180124
32	1948	2.313881191514	0.099998180123
32	2098	2.413892371637	0.100011180123
32	2248	2.51389055176	0.099998180123
32	2398	2.613888731883	0.099998180123
32	2548	2.713886912006	0.099998180123
32	2698	2.813885092129	0.099998180123
32	2848	2.913883272252	0.099998180123
33	294	1.213888210146	3
33	444	1.313886390271	3
33	594	1.413884570396	3
33	744	1.513882750521	3
33	894	1.613880930646	3
33	1044	1.713892110771	3
33	1194	1.813890290895	3
33	1344	1.913888471019	3
33	1498	2.013886651143	3
33	1648	2.113884831267	3
33	1798	2.213883011391	3
33	1948	2.313881191514	3
33	2098	2.413892371637	3
33	2248	2.51389055176	3
33	2398	2.613888731883	3
33	2548	2.713886912006	3
33	2698	2.813885092129	3
33	2848	2.913883272252	3
34	329	1.229638240167	0.099998180125
34	479	1.329636420292	0.099998180125
34	629	1.429647600417	0.100011180125
34	779	1.529645780542	0.099998180125
34	929	1.629643960667	0.099998180125
34	1079	1.729642140792	0.099998180125
34	1229	1.829640320916	0.099998180124
34	1379	1.92963850104	0.099998180124
34	1533	2.029636681164	0.099998180124
34	1683	2.129647861288	0.100011180124
34	1833	2.229646041412	0.099998180124
34	1983	2.329644221535	0.099998180123
34	2133	2.429642401658	0.099998180123
34	2283	2.529640581781	0.099998180123
34	2433	2.629638761904	0.099998180123
34	2583	2.729636942027	0.099998180123
34	2733	2.82964812215	0.100011180123
34	2883	2.929646302273	0.099998180123
35	329	1.229638240167	2
35	479	1.329636420292	2
35	629	1.429647600417	2
35	779	1.529645780542	2
35	929	1.629643960667	2
35	1079	1.729642140792	2
35	1229	1.829640320916	2
35	1379	1.92963850104	2
35	1533	2.029636681164	2
35	1683	2.129647861288	2
35	1833	2.229646041412	2
35	1983	2.329644221535	2
35	2133	2.429642401658	2
35	2283	2.529640581781	2
35	2433	2.629638761904	2
35	2583	2.729636942027	2
35	2733	2.82964812215	2
35	2883	2.929646302273	2
36	360	1.254488270188	0.100011180125
36	510	1.354486450313	0.099998180125
36	660	1.454484630438	0.099998180125
36	810	1.554482810563	0.099998180125
36	960	1.654480990688	0.099998180125
36	1110	1.754479170811	0.099998180123
36	1260	1.854477350935	0.099998180124
36	1410	1.954488531059	0.100011180124
36	1564	2.054486711183	0.099998180124
36	1714	2.154484891307	0.099998180124
36	1864	2.254483071431	0.099998180124
36	2014	2.354481251554	0.099998180123
36	2164	2.454479431677	0.099998180123
36	2314	2.5544776118	0.099998180123
36	2464	2.654488791923	0.100011180123
36	2614	2.754486972046	0.099998180123
36	2764	2.854485152169	0.099998180123
36	2914	2.954483332292	0.099998180123
37	360	1.254488270188	1
37	510	1.354486450313	1
37	660	1.454484630438	1
37	810	1.554482810563	1
37	960	1.654480990688	1
37	1110	1.754479170811	1
37	1260	1.854477350935	1
37	1410	1.954488531059	1
37	1564	2.054486711183	1
37	1714	2.154484891307	1
37	1864	2.254483071431	1
37	2014	2.354481251554	1
37	2164	2.454479431677	1
37	2314	2.5544776118	1
37	2464	2.654488791923	1
37	2614	2.754486972046	1
37	2764	2.854485152169	1
37	2914	2.954483332292	1
38	360	1.254488270188	0.100011180125
38	510	1.354486450313	0.099998180125
38	660	1.454484630438	0.099998180125
38	810	1.554482810563	0.099998180125
38	960	1.654480990688	0.099998180125
38	1110	1.754479170811	0.099998180123
38	1260	1.854477350935	0.099998180124
38	1410	1.954488531059	0.100011180124
38	1564	2.054486711183	0.099998180124
38	1714	2.154484891307	0.099998180124
38	1864	2.254483071431	0.099998180124
38	2014	2.354481251554	0.099998180123
38	2164	2.454479431677	0.099998180123
38	2314	2.5544776118	0.099998180123
38	2464	2.654488791923	0.100011180123
38	2614	2.754486972046	0.099998180123
38	2764	2.854485152169	0.099998180123
38	2914	2.954483332292	0.099998180123
39	360	1.254488270188	1
39	510	1.354486450313	1
39	660	1.454484630438	1
39	810	1.554482810563	1
39	960	1.654480990688	1
39	1110	1.754479170811	1
39	1260	1.854477350935	1
39	1410	1.954488531059	1
39	1564	2.054486711183	1
39	1714	2.154484891307	1
39	1864	2.254483071431	1
39	2014	2.354481251554	1
39	2164	2.454479431677	1
39	2314	2.5544776118	1
39	2464	2.654488791923	1
39	2614	2.754486972046	1
39	2764	2.854485152169	1
39	2914	2.954483332292	1
40	366	1.254488300209	0.100011180125
40	516	1.354486480333	0.099998180124
40	666	1.454484660458	0.099998180125
40	816	1.554482840583	0.099998180125
40	966	1.654481020708	0.099998180125
40	1116	1.754479200832	0.099998180124
40	1266	1.854477380956	0.099998180124
40	1416	1.95448856108	0.100011180124
40	1570	2.054486741204	0.099998180124
40	1720	2.154484921328	0.099998180124
40	1870	2.254483101452	0.099998180124
40	2020	2.354481281575	0.099998180123
40	2170	2.454479461698	0.099998180123
40	2320	2.554477641821	0.099998180123
40	2470	2.654488821943	0.100011180122
40	2620	2.754487002066	0.099998180123
40	2770	2.854485182189	0.099998180123
40	2920	2.954483362312	0.099998180123
41	366	1.254488300209	2
41	516	1.354486480333	2
41	666	1.454484660458	2
41	816	1.554482840583	2
41	966	1.654481020708	2
41	1116	1.754479200832	2
41	1266	1.854477380956	2
41	1416	1.95448856108	2
41	1570	2.054486741204	2
41	1720	2.154484921328	2
41	1870	2.254483101452	2
41	2020	2.354481281575	2
41	2170	2.454479461698	2
41	2320	2.554477641821	2
41	2470	2.654488821943	2
41	2620	2.754487002066	2
41	2770	2.854485182189	2
41	2920	2.954483362312	2
42	372	1.254488330229	0.100011180125
42	522	1.354486510354	0.099998180125
42	672	1.454484690479	0.099998180125
42	822	1.554482870604	0.099998180125
42	972	1.654481050729	0.099998180125
42	1122	1.754479230853	0.099998180124
42	1272	1.854477410977	0.099998180124
42	1422	1.954488591101	0.100011180124
42	1576	2.054486771225	0.099998180124
42	1726	2.154484951349	0.099998180124
42	1876	2.254483131472	0.099998180123
42	2026	2.354481311595	0.099998180123
42	2176	2.454479491718	0.099998180123
42	2326	2.554477671841	0.099998180123
42	2476	2.654488851964	0.100011180123
42	2626	2.754487032087	0.099998180123
42	2776	2.85448521221	0.099998180123
42	2926	2.954483392333	0.099998180123
43	372	1.254488330229	3
43	522	1.354486510354	3
43	672	1.454484690479	3
43	822	1.554482870604	3
43	972	1.654481050729	3
43	1122	1.754479230853	3
43	1272	1.854477410977	3
43	1422	1.954488591101	3
43	1576	2.054486771225	3
43	1726	2.154484951349	3
43	1876	2.254483131472	3
43	2026	2.354481311595	3
43	2176	2.454479491718	3
43	2326	2.554477671841	3
43	2476	2.654488851964	3
43	2626	2.754487032087	3
43	2776	2.85448521221	3
43	2926	2.954483392333	3
44	1428	2	0
44	2932	3	0
45	1428	2	0.010929
45	2932	3	0.01249
46	1428	2	0
46	2932	3	0
47	1429	2	1
47	2933	3	1
48	1429	2	0.010929
48	2933	3	0.01249
49	1429	2	0
49	2933	3	0
50	1430	2	2
50	2934	3	2
51	1430	2	0.010929
51	2934	3	0.01249
52	1430	2	0
52	2934	3	0
53	1431	2	3
53	2935	3	3
54	1431	2	0.010928
54	2935	3	0.01249
55	1431	2	0
55	2935	3	0
vector 56 Highway.node[4].appl distance ETV
vector 57 Highway.node[4].appl relativeSpeed ETV
vector 58 Highway.node[4].appl nodeId ETV
vector 59 Highway.node[4].appl acceleration ETV
vector 60 Highway.node[4].appl controllerAcceleration ETV
vector 61 Highway.node[4].appl speed ETV
vector 62 Highway.node[4].appl posx ETV
vector 63 Highway.node[4].appl posy ETV
vector 64 Highway.node[4].prot nodeId ETV
vector 65 Highway.node[4].prot busyTime ETV
vector 66 Highway.node[4].prot collisions ETV
0	3121	3.11	-1
0	3271	3.21	-1
0	3421	3.31	-1
0	3571	3.41	-1
0	3721	3.51	-1
0	3871	3.61	-1
0	4021	3.71	-1
0	4171	3.81	-1
0	4321	3.91	-1
0	4475	4.01	-1
0	4625	4.11	-1
0	4775	4.21	-1
0	4925	4.31	-1
0	5075	4.41	-1
0	5225	4.51	-1
0	5375	4.61	-1
0	5525	4.71	-1
0	5675	4.81	-1
0	5825	4.91	-1
0	5979	5.01	-1
0	6129	5.11	-1
0	6279	5.21	-1
0	6429	5.31	-1
0	6579	5.41	-1
0	6729	5.51	-1
0	6879	5.61	-1
0	7029	5.71	-1
0	7179	5.81	-1
0	7329	5.91	-1
0	7484	6.01	-1
0	7666	6.11	-1
0	7891	6.21	-1
0	8116	6.31	-1
0	8341	6.41	-1
0	8566	6.51	-1
0	8791	6.61	-1
0	9016	6.71	-1
0	9241	6.81	-1
0	9466	6.91	-1
0	9696	7.01	-1
0	9921	7.11	-1
0	10146	7.21	-1
0	10371	7.31	-1
0	10596	7.41	-1
0	10821	7.51	-1
0	11046	7.61	-1
0	11271	7.71	-1
0	11496	7.81	-1
0	11721	7.91	-1
0	11951	8.01	-1
0	12176	8.11	-1
0	12401	8.21	-1
0	12626	8.31	-1
0	12851	8.41	-1
0	13076	8.51	-1
0	13301	8.61	-1
0	13526	8.71	-1
0	13751	8.81	-1
0	13976	8.91	-1
0	14206	9.01	-1
0	14431	9.11	-1
0	14656	9.21	-1
0	14881	9.31	-1
0	15106	9.41	-1
0	15331	9.51	-1
0	15556	9.61	-1
0	15781	9.71	-1
0	16006	9.81	-1
0	16231	9.91	-1
0	16461	10.01	-1
0	16686	10.11	-1
0	16911	10.21	-1
0	17136	10.31	-1
0	17361	10.41	-1
0	17586	10.51	-1
0	17811	10.61	-1
0	18036	10.71	-1
0	18261	10.81	-1
0	18486	10.91	-1
0	18716	11.01	-1
0	18941	11.11	-1
0	19166	11.21	-1
0	19391	11.31	-1
0	19616	11.41	-1
0	19841	11.51	-1
0	20066	11.61	-1
0	20291	11.71	-1
0	20516	11.81	-1
0	20741	11.91	-1
0	20971	12.01	-1
0	21196	12.11	-1
0	21421	12.21	-1
0	21646	12.31	-1
0	21871	12.41	-1
0	22096	12.51	-1
0	22321	12.61	-1
0	22546	12.71	-1
0	22771	12.81	-1
0	22996	12.91	-1
0	23226	13.01	-1
0	23451	13.11	-1
0	23676	13.21	-1
0	23901	13.31	-1
0	24126	13.41	-1
0	24351	13.51	-1
0	24576	13.61	-1
0	24801	13.71	-1
0	25026	13.81	-1
0	25251	13.91	-1
0	25481	14.01	-1
0	25706	14.11	-1
0	25931	14.21	-1
0	26156	14.31	-1
0	26381	14.41	-1
0	26606	14.51	-1
0	26831	14.61	-1
0	27056	14.71	-1
0	27281	14.81	-1
0	27506	14.91	-1
0	27736	15.01	-1
0	27961	15.11	-1
0	28186	15.21	-1
0	28411	15.31	-1
0	28636	15.41	-1
0	28861	15.51	-1
0	29086	15.61	-1
0	29311	15.71	-1
0	29536	15.81	-1
0	29761	15.91	-1
0	29992	16.01	-1
0	30406	16.11	-1
0	30631	16.21	-1
0	30856	16.31	-1
0	31081	16.41	-1
0	31306	16.51	-1
0	31531	16.61	-1
0	31756	16.71	-1
0	31981	16.81	-1
0	32206	16.91	-1
0	32436	17.01	-1
0	32661	17.11	-1
0	32886	17.21	-1
0	33111	17.31	-1
0	33336	17.41	-1
0	33561	17.51	-1
0	33786	17.61	-1
0	34011	17.71	-1
0	34236	17.81	-1
0	34461	17.91	-1
0	34691	18.01	-1
0	34916	18.11	-1
0	35141	18.21	-1
0	35366	18.31	-1
0	35591	18.41	-1
0	35816	18.51	-1
0	36041	18.61	-1
0	36266	18.71	-1
0	36491	18.81	-1
0	36716	18.91	-1
0	36946	19.01	-1
0	37171	19.11	-1
0	37396	19.21	-1
0	37621	19.31	-1
0	37846	19.41	-1
0	38071	19.51	-1
0	38296	19.61	-1
0	38521	19.71	-1
0	38746	19.81	-1
0	38971	19.91	-1
0	39201	20.01	-1
0	39426	20.11	-1
0	39651	20.21	-1
0	39876	20.31	-1
0	40101	20.41	-1
0	40326	20.51	-1
0	40551	20.61	-1
0	40776	20.71	-1
0	41001	20.81	-1
0	41226	20.91	-1
0	41456	21.01	-1
0	41681	21.11	-1
0	41906	21.21	-1
0	42131	21.31	-1
0	42356	21.41	-1
0	42581	21.51	-1
0	42806	21.61	-1
0	43031	21.71	-1
0	43256	21.81	-1
0	43481	21.91	-1
0	43711	22.01	-1
0	43936	22.11	-1
0	44161	22.21	-1
0	44386	22.31	-1
0	44611	22.41	-1
0	44836	22.51	-1
0	45061	22.61	-1
0	45286	22.71	-1
0	45511	22.81	-1
0	45736	22.91	-1
0	45966	23.01	-1
0	46191	23.11	-1
0	46416	23.21	-1
0	46641	23.31	-1
0	46866	23.41	-1
0	47091	23.51	-1
0	47316	23.61	-1
0	47541	23.71	-1
0	47766	23.81	-1
0	47991	23.91	-1
0	48221	24.01	-1
0	48446	24.11	-1
0	48671	24.21	-1
0	48896	24.31	-1
0	49121	24.41	-1
0	49346	24.51	-1
0	49571	24.61	-1
0	49796	24.71	-1
0	50021	24.81	-1
0	50246	24.91	-1
0	50476	25.01	-1
0	50701	25.11	-1
0	50926	25.21	-1
0	51151	25.31	-1
0	51376	25.41	-1
0	51601	25.51	-1
0	51826	25.61	-1
0	52051	25.71	-1
0	52276	25.81	-1
0	52501	25.91	-1
0	52731	26.01	-1
0	52956	26.11	-1
0	53181	26.21	-1
0	53406	26.31	-1
0	53631	26.41	-1
0	53856	26.51	-1
0	54081	26.61	-1
0	54306	26.71	-1
0	54531	26.81	-1
0	54756	26.91	-1
0	54986	27.01	-1
0	55211	27.11	-1
0	55436	27.21	-1
0	55661	27.31	-1
0	55886	27.41	-1
0	56111	27.51	-1
0	56336	27.61	-1
0	56561	27.71	-1
0	56786	27.81	-1
0	57011	27.91	-1
0	57241	28.01	-1
0	57466	28.11	-1
0	57691	28.21	-1
0	57916	28.31	-1
0	58141	28.41	-1
0	58366	28.51	-1
0	58591	28.61	-1
0	58816	28.71	-1
0	59041	28.81	-1
0	59266	28.91	-1
1	3121	3.11	0
1	3271	3.21	0
1	3421	3.31	0
1	3571	3.41	0
1	3721	3.51	0
1	3871	3.61	0
1	4021	3.71	0
1	4171	3.81	0
1	4321	3.91	0
1	4475	4.01	0
1	4625	4.11	0
1	4775	4.21	0
1	4925	4.31	0
1	5075	4.41	0
1	5225	4.51	0
1	5375	4.61	0
1	5525	4.71	0
1	5675	4.81	0
1	5825	4.91	0
1	5979	5.01	0
1	6129	5.11	0
1	6279	5.21	0
1	6429	5.31	0
1	6579	5.41	0
1	6729	5.51	0
1	6879	5.61	0
1	7029	5.71	0
1	7179	5.81	0
1	7329	5.91	0
1	7484	6.01	0
1	7666	6.11	0
1	7891	6.21	0
1	8116	6.31	0
1	8341	6.41	0
1	8566	6.51	0
1	8791	6.61	0
1	9016	6.71	0
1	9241	6.81	0
1	9466	6.91	0
1	9696	7.01	0
1	9921	7.11	0
1	10146	7.21	0
1	10371	7.31	0
1	10596	7.41	0
1	10821	7.51	0
1	11046	7.61	0
1	11271	7.71	0
1	11496	7.81	0
1	11721	7.91	0
1	11951	8.01	0
1	12176	8.11	0
1	12401	8.21	0
1	12626	8.31	0
1	12851	8.41	0
1	13076	8.51	0
1	13301	8.61	0
1	13526	8.71	0
1	13751	8.81	0
1	13976	8.91	0
1	14206	9.01	0
1	14431	9.11	0
1	14656	9.21	0
1	14881	9.31	0
1	15106	9.41	0
1	15331	9.51	0
1	15556	9.61	0
1	15781	9.71	0
1	16006	9.81	0
1	16231	9.91	0
1	16461	10.01	0
1	16686	10.11	0
1	16911	10.21	0
1	17136	10.31	0
1	17361	10.41	0
1	17586	10.51	0
1	17811	10.61	0
1	18036	10.71	0
1	18261	10.81	0
1	18486	10.91	0
1	18716	11.01	0
1	18941	11.11	0
1	19166	11.21	0
1	19391	11.31	0
1	19616	11.41	0
1	19841	11.51	0
1	20066	11.61	0
1	20291	11.71	0
1	20516	11.81	0
1	20741	11.91	0
1	20971	12.01	0
1	21196	12.11	0
1	21421	12.21	0
1	21646	12.31	0
1	21871	12.41	0
1	22096	12.51	0
1	22321	12.61	0
1	22546	12.71	0
1	22771	12.81	0
1	22996	12.91	0
1	23226	13.01	0
1	23451	13.11	0
1	23676	13.21	0
1	23901	13.31	0
1	24126	13.41	0
1	24351	13.51	0
1	24576	13.61	0
1	24801	13.71	0
1	25026	13.81	0
1	25251	13.91	0
1	25481	14.01	0
1	25706	14.11	0
1	25931	14.21	0
1	26156	14.31	0
1	26381	14.41	0
1	26606	14.51	0
1	26831	14.61	0
1	27056	14.71	0
1	27281	14.81	0
1	27506	14.91	0
1	27736	15.01	0
1	27961	15.11	0
1	28186	15.21	0
1	28411	15.31	0
1	28636	15.41	0
1	28861	15.51	0
1	29086	15.61	0
1	29311	15.71	0
1	29536	15.81	0
1	29761	15.91	0
1	29992	16.01	0
1	30406	16.11	0
1	30631	16.21	0
1	30856	16.31	0
1	31081	16.41	0
1	31306	16.51	0
1	31531	16.61	0
1	31756	16.71	0
1	31981	16.81	0
1	32206	16.91	0
1	32436	17.01	0
1	32661	17.11	0
1	32886	17.21	0
1	33111	17.31	0
1	33336	17.41	0
1	33561	17.51	0
1	33786	17.61	0
1	34011	17.71	0
1	34236	17.81	0
1	34461	17.91	0
1	34691	18.01	0
1	34916	18.11	0
1	35141	18.21	0
1	35366	18.31	0
1	35591	18.41	0
1	35816	18.51	0
1	36041	18.61	0
1	36266	18.71	0
1	36491	18.81	0
1	36716	18.91	0
1	36946	19.01	0
1	37171	19.11	0
1	37396	19.21	0
1	37621	19.31	0
1	37846	19.41	0
1	38071	19.51	0
1	38296	19.61	0
1	38521	19.71	0
1	38746	19.81	0
1	38971	19.91	0
1	39201	20.01	0
1	39426	20.11	0
1	39651	20.21	0
1	39876	20.31	0
1	40101	20.41	0
1	40326	20.51	0
1	40551	20.61	0
1	40776	20.71	0
1	41001	20.81	0
1	41226	20.91	0
1	41456	21.01	0
1	41681	21.11	0
1	41906	21.21	0
1	42131	21.31	0
1	42356	21.41	0
1	42581	21.51	0
1	42806	21.61	0
1	43031	21.71	0
1	43256	21.81	0
1	43481	21.91	0
1	43711	22.01	0
1	43936	22.11	0
1	44161	22.21	0
1	44386	22.31	0
1	44611	22.41	0
1	44836	22.51	0
1	45061	22.61	0
1	45286	22.71	0
1	45511	22.81	0
1	45736	22.91	0
1	45966	23.01	0
1	46191	23.11	0
1	46416	23.21	0
1	46641	23.31	0
1	46866	23.41	0
1	47091	23.51	0
1	47316	23.61	0
1	47541	23.71	0
1	47766	23.81	0
1	47991	23.91	0
1	48221	24.01	0
1	48446	24.11	0
1	48671	24.21	0
1	48896	24.31	0
1	49121	24.41	0
1	49346	24.51	0
1	49571	24.61	0
1	49796	24.71	0
1	50021	24.81	0
1	50246	24.91	0
1	50476	25.01	0
1	50701	25.11	0
1	50926	25.21	0
1	51151	25.31	0
1	51376	25.41	0
1	51601	25.51	0
1	51826	25.61	0
1	52051	25.71	0
1	52276	25.81	0
1	52501	25.91	0
1	52731	26.01	0
1	52956	26.11	0
1	53181	26.21	0
1	53406	26.31	0
1	53631	26.41	0
1	53856	26.51	0
1	54081	26.61	0
1	54306	26.71	0
1	54531	26.81	0
1	54756	26.91	0
1	54986	27.01	0
1	55211	27.11	0
1	55436	27.21	0
1	55661	27.31	0
1	55886	27.41	0
1	56111	27.51	0
1	56336	27.61	0
1	56561	27.71	0
1	56786	27.81	0
1	57011	27.91	0
1	57241	28.01	0
1	57466	28.11	0
1	57691	28.21	0
1	57916	28.31	0
1	58141	28.41	0
1	58366	28.51	0
1	58591	28.61	0
1	58816	28.71	0
1	59041	28.81	0
1	59266	28.91	0
2	3121	3.11	0
2	3271	3.21	0
2	3421	3.31	0
2	3571	3.41	0
2	3721	3.51	0
2	3871	3.61	0
2	4021	3.71	0
2	4171	3.81	0
2	4321	3.91	0
2	4475	4.01	0
2	4625	4.11	0
2	4775	4.21	0
2	4925	4.31	0
2	5075	4.41	0
2	5225	4.51	0
2	5375	4.61	0
2	5525	4.71	0
2	5675	4.81	0
2	5825	4.91	0
2	5979	5.01	0
2	6129	5.11	0
2	6279	5.21	0
2	6429	5.31	0
2	6579	5.41	0
2	6729	5.51	0
2	6879	5.61	0
2	7029	5.71	0
2	7179	5.81	0
2	7329	5.91	0
2	7484	6.01	0
2	7666	6.11	0
2	7891	6.21	0
2	8116	6.31	0
2	8341	6.41	0
2	8566	6.51	0
2	8791	6.61	0
2	9016	6.71	0
2	9241	6.81	0
2	9466	6.91	0
2	9696	7.01	0
2	9921	7.11	0
2	10146	7.21	0
2	10371	7.31	0
2	10596	7.41	0
2	10821	7.51	0
2	11046	7.61	0
2	11271	7.71	0
2	11496	7.81	0
2	11721	7.91	0
2	11951	8.01	0
2	12176	8.11	0
2	12401	8.21	0
2	12626	8.31	0
2	12851	8.41	0
2	13076	8.51	0
2	13301	8.61	0
2	13526	8.71	0
2	13751	8.81	0
2	13976	8.91	0
2	14206	9.01	0
2	14431	9.11	0
2	14656	9.21	0
2	14881	9.31	0
2	15106	9.41	0
2	15331	9.51	0
2	15556	9.61	0
2	15781	9.71	0
2	16006	9.81	0
2	16231	9.91	0
2	16461	10.01	0
2	16686	10.11	0
2	16911	10.21	0
2	17136	10.31	0
2	17361	10.41	0
2	17586	10.51	0
2	17811	10.61	0
2	18036	10.71	0
2	18261	10.81	0
2	18486	10.91	0
2	18716	11.01	0
2	18941	11.11	0
2	19166	11.21	0
2	19391	11.31	0
2	19616	11.41	0
2	19841	11.51	0
2	20066	11.61	0
2	20291	11.71	0
2	20516	11.81	0
2	20741	11.91	0
2	20971	12.01	0
2	21196	12.11	0
2	21421	12.21	0
2	21646	12.31	0
2	21871	12.41	0
2	22096	12.51	0
2	22321	12.61	0
2	22546	12.71	0
2	22771	12.81	0
2	22996	12.91	0
2	23226	13.01	0
2	23451	13.11	0
2	23676	13.21	0
2	23901	13.31	0
2	24126	13.41	0
2	24351	13.51	0
2	24576	13.61	0
2	24801	13.71	0
2	25026	13.81	0
2	25251	13.91	0
2	25481	14.01	0
2	25706	14.11	0
2	25931	14.21	0
2	26156	14.31	0
2	26381	14.41	0
2	26606	14.51	0
2	26831	14.61	0
2	27056	14.71	0
2	27281	14.81	0
2	27506	14.91	0
2	27736	15.01	0
2	27961	15.11	0
2	28186	15.21	0
2	28411	15.31	0
2	28636	15.41	0
2	28861	15.51	0
2	29086	15.61	0
2	29311	15.71	0
2	29536	15.81	0
2	29761	15.91	0
2	29992	16.01	0
2	30406	16.11	0
2	30631	16.21	0
2	30856	16.31	0
2	31081	16.41	0
2	31306	16.51	0
2	31531	16.61	0
2	31756	16.71	0
2	31981	16.81	0
2	32206	16.91	0
2	32436	17.01	0
2	32661	17.11	0
2	32886	17.21	0
2	33111	17.31	0
2	33336	17.41	0
2	33561	17.51	0
2	33786	17.61	0
2	34011	17.71	0
2	34236	17.81	0
2	34461	17.91	0
2	34691	18.01	0
2	34916	18.11	0
2	35141	18.21	0
2	35366	18.31	0
2	35591	18.41	0
2	35816	18.51	0
2	36041	18.61	0
2	36266	18.71	0
2	36491	18.81	0
2	36716	18.91	0
2	36946	19.01	0
2	37171	19.11	0
2	37396	19.21	0
2	37621	19.31	0
2	37846	19.41	0
2	38071	19.51	0
2	38296	19.61	0
2	38521	19.71	0
2	38746	19.81	0
2	38971	19.91	0
2	39201	20.01	0
2	39426	20.11	0
2	39651	20.21	0
2	39876	20.31	0
2	40101	20.41	0
2	40326	20.51	0
2	40551	20.61	0
2	40776	20.71	0
2	41001	20.81	0
2	41226	20.91	0
2	41456	21.01	0
2	41681	21.11	0
2	41906	21.21	0
2	42131	21.31	0
2	42356	21.41	0
2	42581	21.51	0
2	42806	21.61	0
2	43031	21.71	0
2	43256	21.81	0
2	43481	21.91	0
2	43711	22.01	0
2	43936	22.11	0
2	44161	22.21	0
2	44386	22.31	0
2	44611	22.41	0
2	44836	22.51	0
2	45061	22.61	0
2	45286	22.71	0
2	45511	22.81	0
2	45736	22.91	0
2	45966	23.01	0
2	46191	23.11	0
2	46416	23.21	0
2	46641	23.31	0
2	46866	23.41	0
2	47091	23.51	0
2	47316	23.61	0
2	47541	23.71	0
2	47766	23.81	0
2	47991	23.91	0
2	48221	24.01	0
2	48446	24.11	0
2	48671	24.21	0
2	48896	24.31	0
2	49121	24.41	0
2	49346	24.51	0
2	49571	24.61	0
2	49796	24.71	0
2	50021	24.81	0
2	50246	24.91	0
2	50476	25.01	0
2	50701	25.11	0
2	50926	25.21	0
2	51151	25.31	0
2	51376	25.41	0
2	51601	25.51	0
2	51826	25.61	0
2	52051	25.71	0
2	52276	25.81	0
2	52501	25.91	0
2	52731	26.01	0
2	52956	26.11	0
2	53181	26.21	0
2	53406	26.31	0
2	53631	26.41	0
2	53856	26.51	0
2	54081	26.61	0
2	54306	26.71	0
2	54531	26.81	0
2	54756	26.91	0
2	54986	27.01	0
2	55211	27.11	0
2	55436	27.21	0
2	55661	27.31	0
2	55886	27.41	0
2	56111	27.51	0
2	56336	27.61	0
2	56561	27.71	0
2	56786	27.81	0
2	57011	27.91	0
2	57241	28.01	0
2	57466	28.11	0
2	57691	28.21	0
2	57916	28.31	0
2	58141	28.41	0
2	58366	28.51	0
2	58591	28.61	0
2	58816	28.71	0
2	59041	28.81	0
2	59266	28.91	0
3	3121	3.11	-0.000477639
3	3271	3.21	-0.000405773
3	3421	3.31	-0.00033954
3	3571	3.41	-0.000279116
3	3721	3.51	-0.000224541
3	3871	3.61	-0.000175743
3	4021	3.71	-0.00013256
3	4171	3.81	-9.47571e-05
3	4321	3.91	-6.2046e-05
3	4475	4.01	-3.40986e-05
3	4625	4.11	-1.05605e-05
3	4775	4.21	8.93844e-06
3	4925	4.31	2.4774e-05
3	5075	4.41	3.73203e-05
3	5225	4.51	4.69433e-05
3	5375	4.61	5.39956e-05
3	5525	4.71	5.88124e-05
3	5675	4.81	6.1709e-05
3	5825	4.91	6.29785e-05
3	5979	5.01	6.28903e-05
3	6129	5.11	6.169e-05
3	6279	5.21	5.95988e-05
3	6429	5.31	5.68144e-05
3	6579	5.41	5.35112e-05
3	6729	5.51	4.98416e-05
3	6879	5.61	4.59373e-05
3	7029	5.71	4.19105e-05
3	7179	5.81	3.78555e-05
3	7329	5.91	3.38499e-05
3	7484	6.01	2.99569e-05
3	7666	6.11	2.62259e-05
3	7891	6.21	2.26948e-05
3	8116	6.31	1.93911e-05
3	8341	6.41	1.6333e-05
3	8566	6.51	1.35314e-05
3	8791	6.61	1.09904e-05
3	9016	6.71	8.70882e-06
3	9241	6.81	6.6809e-06
3	9466	6.91	4.89747e-06
3	9696	7.01	3.3466e-06
3	9921	7.11	2.01432e-06
3	10146	7.21	8.85256e-07
3	10371	7.31	-5.68459e-08
3	10596	7.41	-8.28678e-07
3	10821	7.51	-1.44699e-06
3	11046	7.61	-1.92826e-06
3	11271	7.71	-2.28849e-06
3	11496	7.81	-2.54296e-06
3	11721	7.91	-2.7061e-06
3	11951	8.01	-2.79139e-06
3	12176	8.11	-2.8113e-06
3	12401	8.21	-2.77721e-06
3	12626	8.31	-2.69943e-06
3	12851	8.41	-2.58721e-06
3	13076	8.51	-2.44874e-06
3	13301	8.61	-2.29123e-06
3	13526	8.71	-2.12092e-06
3	13751	8.81	-1.94317e-06
3	13976	8.91	-1.7625e-06
3	14206	9.01	-1.58267e-06
3	14431	9.11	-1.40677e-06
3	14656	9.21	-1.23723e-06
3	14881	9.31	-1.07596e-06
3	15106	9.41	-9.24364e-07
3	15331	9.51	-7.83424e-07
3	15556	9.61	-6.53753e-07
3	15781	9.71	-5.35652e-07
3	16006	9.81	-4.2916e-07
3	16231	9.91	-3.34103e-07
3	16461	10.01	-2.5013e-07
3	16686	10.11	-1.76757e-07
3	16911	10.21	-1.13395e-07
3	17136	10.31	-5.93825e-08
3	17361	10.41	-1.40084e-08
3	17586	10.51	2.34657e-08
3	17811	10.61	5.3787e-08
3	18036	10.71	7.76954e-08
3	18261	10.81	9.59155e-08
3	18486	10.91	1.09142e-07
3	18716	11.01	1.18035e-07
3	18941	11.11	1.23212e-07
3	19166	11.21	1.2525e-07
3	19391	11.31	1.24675e-07
3	19616	11.41	1.21968e-07
3	19841	11.51	1.17559e-07
3	20066	11.61	1.11834e-07
3	20291	11.71	1.05132e-07
3	20516	11.81	9.77476e-08
3	20741	11.91	8.99373e-08
3	20971	12.01	8.19171e-08
3	21196	12.11	7.38677e-08
3	21421	12.21	6.59401e-08
3	21646	12.31	5.82538e-08
3	21871	12.41	5.09036e-08
3	22096	12.51	4.39606e-08
3	22321	12.61	3.74765e-08
3	22546	12.71	3.14852e-08
3	22771	12.81	2.60055e-08
3	22996	12.91	2.10438e-08
3	23226	13.01	1.65958e-08
3	23451	13.11	1.26498e-08
3	23676	13.21	9.18554e-09
3	23901	13.31	6.17888e-09
3	24126	13.41	3.60174e-09
3	24351	13.51	1.42322e-09
3	24576	13.61	-3.90088e-10
3	24801	13.71	-1.8705e-09
3	25026	13.81	-3.05107e-09
3	25251	13.91	-3.96518e-09
3	25481	14.01	-4.64375e-09
3	25706	14.11	-5.11768e-09
3	25931	14.21	-5.41434e-09
3	26156	14.31	-5.56071e-09
3	26381	14.41	-5.58096e-09
3	26606	14.51	-5.49747e-09
3	26831	14.61	-5.33085e-09
3	27056	14.71	-5.09743e-09
3	27281	14.81	-4.81464e-09
3	27506	14.91	-4.49667e-09
3	27736	15.01	-4.15525e-09
3	27961	15.11	-3.80034e-09
3	28186	15.21	-3.44151e-09
3	28411	15.31	-3.08518e-09
3	28636	15.41	-2.73772e-09
3	28861	15.51	-2.40306e-09
3	29086	15.61	-2.08544e-09
3	29311	15.71	-1.78773e-09
3	29536	15.81	-1.51132e-09
3	29761	15.91	-1.25766e-09
3	29992	16.01	-1.02673e-09
3	30406	16.11	-8.18901e-10
3	30631	16.21	-6.33804e-10
3	30856	16.31	-4.70735e-10
3	31081	16.41	-3.28271e-10
3	31306	16.51	-2.05702e-10
3	31531	16.61	-1.00897e-10
3	31756	16.71	-1.35003e-11
3	31981	16.81	5.82645e-11
3	32206	16.91	1.16174e-10
3	32436	17.01	1.61648e-10
3	32661	17.11	1.95755e-10
3	32886	17.21	2.20624e-10
3	33111	17.31	2.36966e-10
3	33336	17.41	2.45848e-10
3	33561	17.51	2.4869e-10
3	33786	17.61	2.46914e-10
3	34011	17.71	2.40874e-10
3	34236	17.81	2.31282e-10
3	34461	17.91	2.19913e-10
3	34691	18.01	2.05702e-10
3	34916	18.11	1.91491e-10
3	35141	18.21	1.7657e-10
3	35366	18.31	1.59872e-10
3	35591	18.41	1.44595e-10
3	35816	18.51	1.30385e-10
3	36041	18.61	1.16174e-10
3	36266	18.71	1.01963e-10
3	36491	18.81	8.7752e-11
3	36716	18.91	7.35412e-11
3	36946	19.01	6.21725e-11
3	37171	19.11	5.15143e-11
3	37396	19.21	4.08562e-11
3	37621	19.31	3.16192e-11
3	37846	19.41	2.45137e-11
3	38071	19.51	1.74083e-11
3	38296	19.61	1.03029e-11
3	38521	19.71	6.03961e-12
3	38746	19.81	2.4869e-12
3	38971	19.91	-1.06581e-12
3	39201	20.01	-4.61853e-12
3	39426	20.11	-8.17124e-12
3	39651	20.21	-8.88178e-12
3	39876	20.31	-8.88178e-12
3	40101	20.41	-8.88178e-12
3	40326	20.51	-8.88178e-12
3	40551	20.61	-8.88178e-12
3	40776	20.71	-8.88178e-12
3	41001	20.81	-8.88178e-12
3	41226	20.91	-8.88178e-12
3	41456	21.01	-8.88178e-12
3	41681	21.11	-8.88178e-12
3	41906	21.21	-8.88178e-12
3	42131	21.31	-8.88178e-12
3	42356	21.41	-8.88178e-12
3	42581	21.51	-8.88178e-12
3	42806	21.61	-8.88178e-12
3	43031	21.71	-8.88178e-12
3	43256	21.81	-8.88178e-12
3	43481	21.91	-8.88178e-12
3	43711	22.01	-8.88178e-12
3	43936	22.11	-8.88178e-12
3	44161	22.21	-8.17124e-12
3	44386	22.31	-7.4607e-12
3	44611	22.41	-6.75016e-12
3	44836	22.51	-6.03961e-12
3	45061	22.61	-5.68434e-12
3	45286	22.71	-4.9738e-12
3	45511	22.81	-4.61853e-12
3	45736	22.91	-4.26326e-12
3	45966	23.01	-3.55271e-12
3	46191	23.11	-3.19744e-12
3	46416	23.21	-3.19744e-12
3	46641	23.31	-2.84217e-12
3	46866	23.41	-2.4869e-12
3	47091	23.51	-2.13163e-12
3	47316	23.61	-2.13163e-12
3	47541	23.71	-1.77636e-12
3	47766	23.81	-1.77636e-12
3	47991	23.91	-1.42109e-12
3	48221	24.01	-1.42109e-12
3	48446	24.11	-1.06581e-12
3	48671	24.21	-1.06581e-12
3	48896	24.31	-1.06581e-12
3	49121	24.41	-1.06581e-12
3	49346	24.51	-7.10543e-13
3	49571	24.61	-7.10543e-13
3	49796	24.71	-7.10543e-13
3	50021	24.81	-7.10543e-13
3	50246	24.91	-7.10543e-13
3	50476	25.01	-3.55271e-13
3	50701	25.11	-3.55271e-13
3	50926	25.21	-3.55271e-13
3	51151	25.31	-3.55271e-13
3	51376	25.41	-3.55271e-13
3	51601	25.51	-3.55271e-13
3	51826	25.61	-3.55271e-13
3	52051	25.71	-3.55271e-13
3	52276	25.81	-3.55271e-13
3	52501	25.91	-3.55271e-13
3	52731	26.01	0
3	52956	26.11	0
3	53181	26.21	0
3	53406	26.31	0
3	53631	26.41	0
3	53856	26.51	0
3	54081	26.61	0
3	54306	26.71	0
3	54531	26.81	0
3	54756	26.91	0
3	54986	27.01	0
3	55211	27.11	0
3	55436	27.21	0
3	55661	27.31	0
3	55886	27.41	0
3	56111	27.51	0
3	56336	27.61	0
3	56561	27.71	0
3	56786	27.81	0
3	57011	27.91	0
3	57241	28.01	0
3	57466	28.11	0
3	57691	28.21	0
3	57916	28.31	0
3	58141	28.41	0
3	58366	28.51	0
3	58591	28.61	0
3	58816	28.71	0
3	59041	28.81	0
3	59266	28.91	0
4	3121	3.11	-0.000103391
4	3271	3.21	-5.89069e-05
4	3421	3.31	-2.13575e-05
4	3571	3.41	9.82919e-06
4	3721	3.51	3.52368e-05
4	3871	3.61	5.54479e-05
4	4021	3.71	7.10335e-05
4	4171	3.81	8.25451e-05
4	4321	3.91	9.05081e-05
4	4475	4.01	9.54172e-05
4	4625	4.11	9.7733e-05
4	4775	4.21	9.78798e-05
4	4925	4.31	9.62447e-05
4	5075	4.41	9.31771e-05
4	5225	4.51	8.89894e-05
4	5375	4.61	8.39579e-05
4	5525	4.71	7.83245e-05
4	5675	4.81	7.22983e-05
4	5825	4.91	6.6058e-05
4	5979	5.01	5.9754e-05
4	6129	5.11	5.35107e-05
4	6279	5.21	4.74294e-05
4	6429	5.31	4.15898e-05
4	6579	5.41	3.60534e-05
4	6729	5.51	3.0865e-05
4	6879	5.61	2.60551e-05
4	7029	5.71	2.16419e-05
4	7179	5.81	1.76335e-05
4	7329	5.91	1.40289e-05
4	7484	6.01	1.08202e-05
4	7666	6.11	7.99392e-06
4	7891	6.21	5.532e-06
4	8116	6.31	3.41315e-06
4	8341	6.41	1.61374e-06
4	8566	6.51	1.08654e-07
4	8791	6.61	-1.12799e-06
4	9016	6.71	-2.12224e-06
4	9241	6.81	-2.89981e-06
4	9466	6.91	-3.48567e-06
4	9696	7.01	-3.90376e-06
4	9921	7.11	-4.17673e-06
4	10146	7.21	-4.32574e-06
4	10371	7.31	-4.3704e-06
4	10596	7.41	-4.32865e-06
4	10821	7.51	-4.21676e-06
4	11046	7.61	-4.04934e-06
4	11271	7.71	-3.83937e-06
4	11496	7.81	-3.59826e-06
4	11721	7.91	-3.33592e-06
4	11951	8.01	-3.06089e-06
4	12176	8.11	-2.78036e-06
4	12401	8.21	-2.50036e-06
4	12626	8.31	-2.22582e-06
4	12851	8.41	-1.96068e-06
4	13076	8.51	-1.708e-06
4	13301	8.61	-1.47009e-06
4	13526	8.71	-1.24855e-06
4	13751	8.81	-1.04441e-06
4	13976	8.91	-8.58219e-07
4	14206	9.01	-6.90082e-07
4	14431	9.11	-5.39774e-07
4	14656	9.21	-4.06787e-07
4	14881	9.31	-2.90396e-07
4	15106	9.41	-1.89707e-07
4	15331	9.51	-1.03704e-07
4	15556	9.61	-3.12909e-08
4	15781	9.71	2.86736e-08
4	16006	9.81	7.73515e-08
4	16231	9.91	1.15897e-07
4	16461	10.01	1.45439e-07
4	16686	10.11	1.67065e-07
4	16911	10.21	1.81809e-07
4	17136	10.31	1.90644e-07
4	17361	10.41	1.94472e-07
4	17586	10.51	1.94125e-07
4	17811	10.61	1.90358e-07
4	18036	10.71	1.83853e-07
4	18261	10.81	1.75219e-07
4	18486	10.91	1.64994e-07
4	18716	11.01	1.53647e-07
4	18941	11.11	1.41582e-07
4	19166	11.21	1.29146e-07
4	19391	11.31	1.16627e-07
4	19616	11.41	1.04266e-07
4	19841	11.51	9.22547e-08
4	20066	11.61	8.07471e-08
4	20291	11.71	6.98584e-08
4	20516	11.81	5.96732e-08
4	20741	11.91	5.02471e-08
4	20971	12.01	4.16133e-08
4	21196	12.11	3.37845e-08
4	21421	12.21	2.67558e-08
4	21646	12.31	2.05102e-08
4	21871	12.41	1.50187e-08
4	22096	12.51	1.02442e-08
4	22321	12.61	6.14406e-09
4	22546	12.71	2.67022e-09
4	22771	12.81	-2.27374e-10
4	22996	12.91	-2.60059e-09
4	23226	13.01	-4.50058e-09
4	23451	13.11	-5.97851e-09
4	23676	13.21	-7.08376e-09
4	23901	13.31	-7.86322e-09
4	24126	13.41	-8.36167e-09
4	24351	13.51	-8.62066e-09
4	24576	13.61	-8.67857e-09
4	24801	13.71	-8.57057e-09
4	25026	13.81	-8.32792e-09
4	25251	13.91	-7.97975e-09
4	25481	14.01	-7.55094e-09
4	25706	14.11	-7.06351e-09
4	25931	14.21	-6.53699e-09
4	26156	14.31	-5.98774e-09
4	26381	14.41	-5.42997e-09
4	26606	14.51	-4.87468e-09
4	26831	14.61	-4.33182e-09
4	27056	14.71	-3.80886e-09
4	27281	14.81	-3.31148e-09
4	27506	14.91	-2.8443e-09
4	27736	15.01	-2.40981e-09
4	27961	15.11	-2.01013e-09
4	28186	15.21	-1.64633e-09
4	28411	15.31	-1.31806e-09
4	28636	15.41	-1.02531e-09
4	28861	15.51	-7.66676e-10
4	29086	15.61	-5.40723e-10
4	29311	15.71	-3.46034e-10
4	29536	15.81	-1.79767e-10
4	29761	15.91	-4.01457e-11
4	29992	16.01	7.49623e-11
4	30406	16.11	1.68043e-10
4	30631	16.21	2.41585e-10
4	30856	16.31	2.97362e-10
4	31081	16.41	3.37863e-10
4	31306	16.51	3.64864e-10
4	31531	16.61	3.80851e-10
4	31756	16.71	3.86891e-10
4	31981	16.81	3.84759e-10
4	32206	16.91	3.76232e-10
4	32436	17.01	3.62377e-10
4	32661	17.11	3.44613e-10
4	32886	17.21	3.24007e-10
4	33111	17.31	3.00915e-10
4	33336	17.41	2.76756e-10
4	33561	17.51	2.52243e-10
4	33786	17.61	2.27374e-10
4	34011	17.71	2.0286e-10
4	34236	17.81	1.79057e-10
4	34461	17.91	1.56319e-10
4	34691	18.01	1.35003e-10
4	34916	18.11	1.15108e-10
4	35141	18.21	9.66338e-11
4	35366	18.31	7.99361e-11
4	35591	18.41	6.46594e-11
4	35816	18.51	5.08038e-11
4	36041	18.61	3.83693e-11
4	36266	18.71	2.73559e-11
4	36491	18.81	1.77636e-11
4	36716	18.91	9.59233e-12
4	36946	19.01	2.84217e-12
4	37171	19.11	-2.84217e-12
4	37396	19.21	-7.4607e-12
4	37621	19.31	-1.13687e-11
4	37846	19.41	-1.42109e-11
4	38071	19.51	-1.63425e-11
4	38296	19.61	-1.77636e-11
4	38521	19.71	-1.84741e-11
4	38746	19.81	-1.88294e-11
4	38971	19.91	-1.88294e-11
4	39201	20.01	-1.88294e-11
4	39426	20.11	-1.81188e-11
4	39651	20.21	-1.7053e-11
4	39876	20.31	-1.63425e-11
4	40101	20.41	-1.52767e-11
4	40326	20.51	-1.45661e-11
4	40551	20.61	-1.35003e-11
4	40776	20.71	-1.27898e-11
4	41001	20.81	-1.1724e-11
4	41226	20.91	-1.10134e-11
4	41456	21.01	-9.9476e-12
4	41681	21.11	-9.23706e-12
4	41906	21.21	-8.17124e-12
4	42131	21.31	-7.4607e-12
4	42356	21.41	-6.39488e-12
4	42581	21.51	-5.68434e-12
4	42806	21.61	-4.61853e-12
4	43031	21.71	-3.90799e-12
4	43256	21.81	-2.84217e-12
4	43481	21.91	-2.13163e-12
4	43711	22.01	-1.06581e-12
4	43936	22.11	-3.55271e-13
4	44161	22.21	7.10543e-13
4	44386	22.31	1.42109e-12
4	44611	22.41	2.13163e-12
4	44836	22.51	2.84217e-12
4	45061	22.61	3.19744e-12
4	45286	22.71	3.90799e-12
4	45511	22.81	4.26326e-12
4	45736	22.91	4.61853e-12
4	45966	23.01	5.32907e-12
4	46191	23.11	5.68434e-12
4	46416	23.21	5.68434e-12
4	46641	23.31	6.03961e-12
4	46866	23.41	6.39488e-12
4	47091	23.51	6.75016e-12
4	47316	23.61	6.75016e-12
4	47541	23.71	7.10543e-12
4	47766	23.81	7.10543e-12
4	47991	23.91	7.4607e-12
4	48221	24.01	7.4607e-12
4	48446	24.11	7.81597e-12
4	48671	24.21	7.81597e-12
4	48896	24.31	7.81597e-12
4	49121	24.41	7.81597e-12
4	49346	24.51	8.17124e-12
4	49571	24.61	8.17124e-12
4	49796	24.71	8.17124e-12
4	50021	24.81	8.17124e-12
4	50246	24.91	8.17124e-12
4	50476	25.01	8.52651e-12
4	50701	25.11	8.52651e-12
4	50926	25.21	8.52651e-12
4	51151	25.31	8.52651e-12
4	51376	25.41	8.52651e-12
4	51601	25.51	8.52651e-12
4	51826	25.61	8.52651e-12
4	52051	25.71	8.52651e-12
4	52276	25.81	8.52651e-12
4	52501	25.91	8.52651e-12
4	52731	26.01	8.88178e-12
4	52956	26.11	8.88178e-12
4	53181	26.21	8.88178e-12
4	53406	26.31	8.88178e-12
4	53631	26.41	8.88178e-12
4	53856	26.51	8.88178e-12
4	54081	26.61	8.88178e-12
4	54306	26.71	8.88178e-12
4	54531	26.81	8.88178e-12
4	54756	26.91	8.88178e-12
4	54986	27.01	8.88178e-12
4	55211	27.11	8.88178e-12
4	55436	27.21	8.88178e-12
4	55661	27.31	8.88178e-12
4	55886	27.41	8.88178e-12
4	56111	27.51	8.88178e-12
4	56336	27.61	8.88178e-12
4	56561	27.71	8.88178e-12
4	56786	27.81	8.88178e-12
4	57011	27.91	8.88178e-12
4	57241	28.01	8.88178e-12
4	57466	28.11	8.88178e-12
4	57691	28.21	8.88178e-12
4	57916	28.31	8.88178e-12
4	58141	28.41	8.88178e-12
4	58366	28.51	8.88178e-12
4	58591	28.61	8.88178e-12
4	58816	28.71	8.88178e-12
4	59041	28.81	8.88178e-12
4	59266	28.91	8.88178e-12
5	3121	3.11	27.7779
5	3271	3.21	27.7779
5	3421	3.31	27.7778
5	3571	3.41	27.7778
5	3721	3.51	27.7778
5	3871	3.61	27.7777
5	4021	3.71	27.7777
5	4171	3.81	27.7777
5	4321	3.91	27.7777
5	4475	4.01	27.7777
5	4625	4.11	27.7777
5	4775	4.21	27.7777
5	4925	4.31	27.7777
5	5075	4.41	27.7777
5	5225	4.51	27.7777
5	5375	4.61	27.7777
5	5525	4.71	27.7777
5	5675	4.81	27.7777
5	5825	4.91	27.7777
5	5979	5.01	27.7777
5	6129	5.11	27.7777
5	6279	5.21	27.7778
5	6429	5.31	27.7778
5	6579	5.41	27.7778
5	6729	5.51	27.7778
5	6879	5.61	27.7778
5	7029	5.71	27.7778
5	7179	5.81	27.7778
5	7329	5.91	27.7778
5	7484	6.01	27.7778
5	7666	6.11	27.7778
5	7891	6.21	27.7778
5	8116	6.31	27.7778
5	8341	6.41	27.7778
5	8566	6.51	27.7778
5	8791	6.61	27.7778
5	9016	6.71	27.7778
5	9241	6.81	27.7778
5	9466	6.91	27.7778
5	9696	7.01	27.7778
5	9921	7.11	27.7778
5	10146	7.21	27.7778
5	10371	7.31	27.7778
5	10596	7.41	27.7778
5	10821	7.51	27.7778
5	11046	7.61	27.7778
5	11271	7.71	27.7778
5	11496	7.81	27.7778
5	11721	7.91	27.7778
5	11951	8.01	27.7778
5	12176	8.11	27.7778
5	12401	8.21	27.7778
5	12626	8.31	27.7778
5	12851	8.41	27.7778
5	13076	8.51	27.7778
5	13301	8.61	27.7778
5	13526	8.71	27.7778
5	13751	8.81	27.7778
5	13976	8.91	27.7778
5	14206	9.01	27.7778
5	14431	9.11	27.7778
5	14656	9.21	27.7778
5	14881	9.31	27.7778
5	15106	9.41	27.7778
5	15331	9.51	27.7778
5	15556	9.61	27.7778
5	15781	9.71	27.7778
5	16006	9.81	27.7778
5	16231	9.91	27.7778
5	16461	10.01	27.7778
5	16686	10.11	27.7778
5	16911	10.21	27.7778
5	17136	10.31	27.7778
5	17361	10.41	27.7778
5	17586	10.51	27.7778
5	17811	10.61	27.7778
5	18036	10.71	27.7778
5	18261	10.81	27.7778
5	18486	10.91	27.7778
5	18716	11.01	27.7778
5	18941	11.11	27.7778
5	19166	11.21	27.7778
5	19391	11.31	27.7778
5	19616	11.41	27.7778
5	19841	11.51	27.7778
5	20066	11.61	27.7778
5	20291	11.71	27.7778
5	20516	11.81	27.7778
5	20741	11.91	27.7778
5	20971	12.01	27.7778
5	21196	12.11	27.7778
5	21421	12.21	27.7778
5	21646	12.31	27.7778
5	21871	12.41	27.7778
5	22096	12.51	27.7778
5	22321	12.61	27.7778
5	22546	12.71	27.7778
5	22771	12.81	27.7778
5	22996	12.91	27.7778
5	23226	13.01	27.7778
5	23451	13.11	27.7778
5	23676	13.21	27.7778
5	23901	13.31	27.7778
5	24126	13.41	27.7778
5	24351	13.51	27.7778
5	24576	13.61	27.7778
5	24801	13.71	27.7778
5	25026	13.81	27.7778
5	25251	13.91	27.7778
5	25481	14.01	27.7778
5	25706	14.11	27.7778
5	25931	14.21	27.7778
5	26156	14.31	27.7778
5	26381	14.41	27.7778
5	26606	14.51	27.7778
5	26831	14.61	27.7778
5	27056	14.71	27.7778
5	27281	14.81	27.7778
5	27506	14.91	27.7778
5	27736	15.01	27.7778
5	27961	15.11	27.7778
5	28186	15.21	27.7778
5	28411	15.31	27.7778
5	28636	15.41	27.7778
5	28861	15.51	27.7778
5	29086	15.61	27.7778
5	29311	15.71	27.7778
5	29536	15.81	27.7778
5	29761	15.91	27.7778
5	29992	16.01	27.7778
5	30406	16.11	27.7778
5	30631	16.21	27.7778
5	30856	16.31	27.7778
5	31081	16.41	27.7778
5	31306	16.51	27.7778
5	31531	16.61	27.7778
5	31756	16.71	27.7778
5	31981	16.81	27.7778
5	32206	16.91	27.7778
5	32436	17.01	27.7778
5	32661	17.11	27.7778
5	32886	17.21	27.7778
5	33111	17.31	27.7778
5	33336	17.41	27.7778
5	33561	17.51	27.7778
5	33786	17.61	27.7778
5	34011	17.71	27.7778
5	34236	17.81	27.7778
5	34461	17.91	27.7778
5	34691	18.01	27.7778
5	34916	18.11	27.7778
5	35141	18.21	27.7778
5	35366	18.31	27.7778
5	35591	18.41	27.7778
5	35816	18.51	27.7778
5	36041	18.61	27.7778
5	36266	18.71	27.7778
5	36491	18.81	27.7778
5	36716	18.91	27.7778
5	36946	19.01	27.7778
5	37171	19.11	27.7778
5	37396	19.21	27.7778
5	37621	19.31	27.7778
5	37846	19.41	27.7778
5	38071	19.51	27.7778
5	38296	19.61	27.7778
5	38521	19.71	27.7778
5	38746	19.81	27.7778
5	38971	19.91	27.7778
5	39201	20.01	27.7778
5	39426	20.11	27.7778
5	39651	20.21	27.7778
5	39876	20.31	27.7778
5	40101	20.41	27.7778
5	40326	20.51	27.7778
5	40551	20.61	27.7778
5	40776	20.71	27.7778
5	41001	20.81	27.7778
5	41226	20.91	27.7778
5	41456	21.01	27.7778
5	41681	21.11	27.7778
5	41906	21.21	27.7778
5	42131	21.31	27.7778
5	42356	21.41	27.7778
5	42581	21.51	27.7778
5	42806	21.61	27.7778
5	43031	21.71	27.7778
5	43256	21.81	27.7778
5	43481	21.91	27.7778
5	43711	22.01	27.7778
5	43936	22.11	27.7778
5	44161	22.21	27.7778
5	44386	22.31	27.7778
5	44611	22.41	27.7778
5	44836	22.51	27.7778
5	45061	22.61	27.7778
5	45286	22.71	27.7778
5	45511	22.81	27.7778
5	45736	22.91	27.7778
5	45966	23.01	27.7778
5	46191	23.11	27.7778
5	46416	23.21	27.7778
5	46641	23.31	27.7778
5	46866	23.41	27.7778
5	47091	23.51	27.7778
5	47316	23.61	27.7778
5	47541	23.71	27.7778
5	47766	23.81	27.7778
5	47991	23.91	27.7778
5	48221	24.01	27.7778
5	48446	24.11	27.7778
5	48671	24.21	27.7778
5	48896	24.31	27.7778
5	49121	24.41	27.7778
5	49346	24.51	27.7778
5	49571	24.61	27.7778
5	49796	24.71	27.7778
5	50021	24.81	27.7778
5	50246	24.91	27.7778
5	50476	25.01	27.7778
5	50701	25.11	27.7778
5	50926	25.21	27.7778
5	51151	25.31	27.7778
5	51376	25.41	27.7778
5	51601	25.51	27.7778
5	51826	25.61	27.7778
5	52051	25.71	27.7778
5	52276	25.81	27.7778
5	52501	25.91	27.7778
5	52731	26.01	27.7778
5	52956	26.11	27.7778
5	53181	26.21	27.7778
5	53406	26.31	27.7778
5	53631	26.41	27.7778
5	53856	26.51	27.7778
5	54081	26.61	27.7778
5	54306	26.71	27.7778
5	54531	26.81	27.7778
5	54756	26.91	27.7778
5	54986	27.01	27.7778
5	55211	27.11	27.7778
5	55436	27.21	27.7778
5	55661	27.31	27.7778
5	55886	27.41	27.7778
5	56111	27.51	27.7778
5	56336	27.61	27.7778
5	56561	27.71	27.7778
5	56786	27.81	27.7778
5	57011	27.91	27.7778
5	57241	28.01	27.7778
5	57466	28.11	27.7778
5	57691	28.21	27.7778
5	57916	28.31	27.7778
5	58141	28.41	27.7778
5	58366	28.51	27.7778
5	58591	28.61	27.7778
5	58816	28.71	27.7778
5	59041	28.81	27.7778
5	59266	28.91	27.7778
6	3121	3.11	93.4979
6	3271	3.21	96.2757
6	3421	3.31	99.0535
6	3571	3.41	101.831
6	3721	3.51	104.609
6	3871	3.61	107.387
6	4021	3.71	110.165
6	4171	3.81	112.942
6	4321	3.91	115.72
6	4475	4.01	118.498
6	4625	4.11	121.276
6	4775	4.21	124.053
6	4925	4.31	126.831
6	5075	4.41	129.609
6	5225	4.51	132.387
6	5375	4.61	135.165
6	5525	4.71	137.942
6	5675	4.81	140.72
6	5825	4.91	143.498
6	5979	5.01	146.276
6	6129	5.11	149.053
6	6279	5.21	151.831
6	6429	5.31	154.609
6	6579	5.41	157.387
6	6729	5.51	160.165
6	6879	5.61	162.942
6	7029	5.71	165.72
6	7179	5.81	168.498
6	7329	5.91	171.276
6	7484	6.01	174.053
6	7666	6.11	176.831
6	7891	6.21	179.609
6	8116	6.31	182.387
6	8341	6.41	185.165
6	8566	6.51	187.942
6	8791	6.61	190.72
6	9016	6.71	193.498
6	9241	6.81	196.276
6	9466	6.91	199.053
6	9696	7.01	201.831
6	9921	7.11	204.609
6	10146	7.21	207.387
6	10371	7.31	210.165
6	10596	7.41	212.942
6	10821	7.51	215.72
6	11046	7.61	218.498
6	11271	7.71	221.276
6	11496	7.81	224.053
6	11721	7.91	226.831
6	11951	8.01	229.609
6	12176	8.11	232.387
6	12401	8.21	235.165
6	12626	8.31	237.942
6	12851	8.41	240.72
6	13076	8.51	243.498
6	13301	8.61	246.276
6	13526	8.71	249.053
6	13751	8.81	251.831
6	13976	8.91	254.609
6	14206	9.01	257.387
6	14431	9.11	260.165
6	14656	9.21	262.942
6	14881	9.31	265.72
6	15106	9.41	268.498
6	15331	9.51	271.276
6	15556	9.61	274.053
6	15781	9.71	276.831
6	16006	9.81	279.609
6	16231	9.91	282.387
6	16461	10.01	285.165
6	16686	10.11	287.942
6	16911	10.21	290.72
6	17136	10.31	293.498
6	17361	10.41	296.276
6	17586	10.51	299.054
6	17811	10.61	301.831
6	18036	10.71	304.609
6	18261	10.81	307.387
6	18486	10.91	310.165
6	18716	11.01	312.942
6	18941	11.11	315.72
6	19166	11.21	318.498
6	19391	11.31	321.276
6	19616	11.41	324.054
6	19841	11.51	326.831
6	20066	11.61	329.609
6	20291	11.71	332.387
6	20516	11.81	335.165
6	20741	11.91	337.942
6	20971	12.01	340.72
6	21196	12.11	343.498
6	21421	12.21	346.276
6	21646	12.31	349.054
6	21871	12.41	351.831
6	22096	12.51	354.609
6	22321	12.61	357.387
6	22546	12.71	360.165
6	22771	12.81	362.942
6	22996	12.91	365.72
6	23226	13.01	368.498
6	23451	13.11	371.276
6	23676	13.21	374.054
6	23901	13.31	376.831
6	24126	13.41	379.609
6	24351	13.51	382.387
6	24576	13.61	385.165
6	24801	13.71	387.942
6	25026	13.81	390.72
6	25251	13.91	393.498
6	25481	14.01	396.276
6	25706	14.11	399.054
6	25931	14.21	401.831
6	26156	14.31	404.609
6	26381	14.41	407.387
6	26606	14.51	410.165
6	26831	14.61	412.942
6	27056	14.71	415.72
6	27281	14.81	418.498
6	27506	14.91	421.276
6	27736	15.01	424.054
6	27961	15.11	426.831
6	28186	15.21	429.609
6	28411	15.31	432.387
6	28636	15.41	435.165
6	28861	15.51	437.943
6	29086	15.61	440.72
6	29311	15.71	443.498
6	29536	15.81	446.276
6	29761	15.91	449.054
6	29992	16.01	451.831
6	30406	16.11	454.609
6	30631	16.21	457.387
6	30856	16.31	460.165
6	31081	16.41	462.943
6	31306	16.51	465.72
6	31531	16.61	468.498
6	31756	16.71	471.276
6	31981	16.81	474.054
6	32206	16.91	476.831
6	32436	17.01	479.609
6	32661	17.11	482.387
6	32886	17.21	485.165
6	33111	17.31	487.943
6	33336	17.41	490.72
6	33561	17.51	493.498
6	33786	17.61	496.276
6	34011	17.71	499.054
6	34236	17.81	501.831
6	34461	17.91	504.609
6	34691	18.01	507.387
6	34916	18.11	510.165
6	35141	18.21	512.943
6	35366	18.31	515.72
6	35591	18.41	518.498
6	35816	18.51	521.276
6	36041	18.61	524.054
6	36266	18.71	526.831
6	36491	18.81	529.609
6	36716	18.91	532.387
6	36946	19.01	535.165
6	37171	19.11	537.943
6	37396	19.21	540.72
6	37621	19.31	543.498
6	37846	19.41	546.276
6	38071	19.51	549.054
6	38296	19.61	551.831
6	38521	19.71	554.609
6	38746	19.81	557.387
6	38971	19.91	560.165
6	39201	20.01	562.943
6	39426	20.11	565.72
6	39651	20.21	568.498
6	39876	20.31	571.276
6	40101	20.41	574.054
6	40326	20.51	576.832
6	40551	20.61	579.609
6	40776	20.71	582.387
6	41001	20.81	585.165
6	41226	20.91	587.943
6	41456	21.01	590.72
6	41681	21.11	593.498
6	41906	21.21	596.276
6	42131	21.31	599.054
6	42356	21.41	601.832
6	42581	21.51	604.609
6	42806	21.61	607.387
6	43031	21.71	610.165
6	43256	21.81	612.943
6	43481	21.91	615.72
6	43711	22.01	618.498
6	43936	22.11	621.276
6	44161	22.21	624.054
6	44386	22.31	626.832
6	44611	22.41	629.609
6	44836	22.51	632.387
6	45061	22.61	635.165
6	45286	22.71	637.943
6	45511	22.81	640.72
6	45736	22.91	643.498
6	45966	23.01	646.276
6	46191	23.11	649.054
6	46416	23.21	651.832
6	46641	23.31	654.609
6	46866	23.41	657.387
6	47091	23.51	660.165
6	47316	23.61	662.943
6	47541	23.71	665.72
6	47766	23.81	668.498
6	47991	23.91	671.276
6	48221	24.01	674.054
6	48446	24.11	676.832
6	48671	24.21	679.609
6	48896	24.31	682.387
6	49121	24.41	685.165
6	49346	24.51	687.943
6	49571	24.61	690.72
6	49796	24.71	693.498
6	50021	24.81	696.276
6	50246	24.91	699.054
6	50476	25.01	701.832
6	50701	25.11	704.609
6	50926	25.21	707.387
6	51151	25.31	710.165
6	51376	25.41	712.943
6	51601	25.51	715.721
6	51826	25.61	718.498
6	52051	25.71	721.276
6	52276	25.81	724.054
6	52501	25.91	726.832
6	52731	26.01	729.609
6	52956	26.11	732.387
6	53181	26.21	735.165
6	53406	26.31	737.943
6	53631	26.41	740.721
6	53856	26.51	743.498
6	54081	26.61	746.276
6	54306	26.71	749.054
6	54531	26.81	751.832
6	54756	26.91	754.609
6	54986	27.01	757.387
6	55211	27.11	760.165
6	55436	27.21	762.943
6	55661	27.31	765.721
6	55886	27.41	768.498
6	56111	27.51	771.276
6	56336	27.61	774.054
6	56561	27.71	776.832
6	56786	27.81	779.609
6	57011	27.91	782.387
6	57241	28.01	785.165
6	57466	28.11	787.943
6	57691	28.21	790.721
6	57916	28.31	793.498
6	58141	28.41	796.276
6	58366	28.51	799.054
6	58591	28.61	801.832
6	58816	28.71	804.609
6	59041	28.81	807.387
6	59266	28.91	810.165
7	3121	3.11	242.45
7	3271	3.21	242.45
7	3421	3.31	242.45
7	3571	3.41	242.45
7	3721	3.51	242.45
7	3871	3.61	242.45
7	4021	3.71	242.45
7	4171	3.81	242.45
7	4321	3.91	242.45
7	4475	4.01	242.45
7	4625	4.11	242.45
7	4775	4.21	242.45
7	4925	4.31	242.45
7	5075	4.41	242.45
7	5225	4.51	242.45
7	5375	4.61	242.45
7	5525	4.71	242.45
7	5675	4.81	242.45
7	5825	4.91	242.45
7	5979	5.01	242.45
7	6129	5.11	242.45
7	6279	5.21	242.45
7	6429	5.31	242.45
7	6579	5.41	242.45
7	6729	5.51	242.45
7	6879	5.61	242.45
7	7029	5.71	242.45
7	7179	5.81	242.45
7	7329	5.91	242.45
7	7484	6.01	242.45
7	7666	6.11	242.45
7	7891	6.21	242.45
7	8116	6.31	242.45
7	8341	6.41	242.45
7	8566	6.51	242.45
7	8791	6.61	242.45
7	9016	6.71	242.45
7	9241	6.81	242.45
7	9466	6.91	242.45
7	9696	7.01	242.45
7	9921	7.11	242.45
7	10146	7.21	242.45
7	10371	7.31	242.45
7	10596	7.41	242.45
7	10821	7.51	242.45
7	11046	7.61	242.45
7	11271	7.71	242.45
7	11496	7.81	242.45
7	11721	7.91	242.45
7	11951	8.01	242.45
7	12176	8.11	242.45
7	12401	8.21	242.45
7	12626	8.31	242.45
7	12851	8.41	242.45
7	13076	8.51	242.45
7	13301	8.61	242.45
7	13526	8.71	242.45
7	13751	8.81	242.45
7	13976	8.91	242.45
7	14206	9.01	242.45
7	14431	9.11	242.45
7	14656	9.21	242.45
7	14881	9.31	242.45
7	15106	9.41	242.45
7	15331	9.51	242.45
7	15556	9.61	242.45
7	15781	9.71	242.45
7	16006	9.81	242.45
7	16231	9.91	242.45
7	16461	10.01	242.45
7	16686	10.11	242.45
7	16911	10.21	242.45
7	17136	10.31	242.45
7	17361	10.41	242.45
7	17586	10.51	242.45
7	17811	10.61	242.45
7	18036	10.71	242.45
7	18261	10.81	242.45
7	18486	10.91	242.45
7	18716	11.01	242.45
7	18941	11.11	242.45
7	19166	11.21	242.45
7	19391	11.31	242.45
7	19616	11.41	242.45
7	19841	11.51	242.45
7	20066	11.61	242.45
7	20291	11.71	242.45
7	20516	11.81	242.45
7	20741	11.91	242.45
7	20971	12.01	242.45
7	21196	12.11	242.45
7	21421	12.21	242.45
7	21646	12.31	242.45
7	21871	12.41	242.45
7	22096	12.51	242.45
7	22321	12.61	242.45
7	22546	12.71	242.45
7	22771	12.81	242.45
7	22996	12.91	242.45
7	23226	13.01	242.45
7	23451	13.11	242.45
7	23676	13.21	242.45
7	23901	13.31	242.45
7	24126	13.41	242.45
7	24351	13.51	242.45
7	24576	13.61	242.45
7	24801	13.71	242.45
7	25026	13.81	242.45
7	25251	13.91	242.45
7	25481	14.01	242.45
7	25706	14.11	242.45
7	25931	14.21	242.45
7	26156	14.31	242.45
7	26381	14.41	242.45
7	26606	14.51	242.45
7	26831	14.61	242.45
7	27056	14.71	242.45
7	27281	14.81	242.45
7	27506	14.91	242.45
7	27736	15.01	242.45
7	27961	15.11	242.45
7	28186	15.21	242.45
7	28411	15.31	242.45
7	28636	15.41	242.45
7	28861	15.51	242.45
7	29086	15.61	242.45
7	29311	15.71	242.45
7	29536	15.81	242.45
7	29761	15.91	242.45
7	29992	16.01	242.45
7	30406	16.11	242.45
7	30631	16.21	242.45
7	30856	16.31	242.45
7	31081	16.41	242.45
7	31306	16.51	242.45
7	31531	16.61	242.45
7	31756	16.71	242.45
7	31981	16.81	242.45
7	32206	16.91	242.45
7	32436	17.01	242.45
7	32661	17.11	242.45
7	32886	17.21	242.45
7	33111	17.31	242.45
7	33336	17.41	242.45
7	33561	17.51	242.45
7	33786	17.61	242.45
7	34011	17.71	242.45
7	34236	17.81	242.45
7	34461	17.91	242.45
7	34691	18.01	242.45
7	34916	18.11	242.45
7	35141	18.21	242.45
7	35366	18.31	242.45
7	35591	18.41	242.45
7	35816	18.51	242.45
7	36041	18.61	242.45
7	36266	18.71	242.45
7	36491	18.81	242.45
7	36716	18.91	242.45
7	36946	19.01	242.45
7	37171	19.11	242.45
7	37396	19.21	242.45
7	37621	19.31	242.45
7	37846	19.41	242.45
7	38071	19.51	242.45
7	38296	19.61	242.45
7	38521	19.71	242.45
7	38746	19.81	242.45
7	38971	19.91	242.45
7	39201	20.01	242.45
7	39426	20.11	242.45
7	39651	20.21	242.45
7	39876	20.31	242.45
7	40101	20.41	242.45
7	40326	20.51	242.45
7	40551	20.61	242.45
7	40776	20.71	242.45
7	41001	20.81	242.45
7	41226	20.91	242.45
7	41456	21.01	242.45
7	41681	21.11	242.45
7	41906	21.21	242.45
7	42131	21.31	242.45
7	42356	21.41	242.45
7	42581	21.51	242.45
7	42806	21.61	242.45
7	43031	21.71	242.45
7	43256	21.81	242.45
7	43481	21.91	242.45
7	43711	22.01	242.45
7	43936	22.11	242.45
7	44161	22.21	242.45
7	44386	22.31	242.45
7	44611	22.41	242.45
7	44836	22.51	242.45
7	45061	22.61	242.45
7	45286	22.71	242.45
7	45511	22.81	242.45
7	45736	22.91	242.45
7	45966	23.01	242.45
7	46191	23.11	242.45
7	46416	23.21	242.45
7	46641	23.31	242.45
7	46866	23.41	242.45
7	47091	23.51	242.45
7	47316	23.61	242.45
7	47541	23.71	242.45
7	47766	23.81	242.45
7	47991	23.91	242.45
7	48221	24.01	242.45
7	48446	24.11	242.45
7	48671	24.21	242.45
7	48896	24.31	242.45
7	49121	24.41	242.45
7	49346	24.51	242.45
7	49571	24.61	242.45
7	49796	24.71	242.45
7	50021	24.81	242.45
7	50246	24.91	242.45
7	50476	25.01	242.45
7	50701	25.11	242.45
7	50926	25.21	242.45
7	51151	25.31	242.45
7	51376	25.41	242.45
7	51601	25.51	242.45
7	51826	25.61	242.45
7	52051	25.71	242.45
7	52276	25.81	242.45
7	52501	25.91	242.45
7	52731	26.01	242.45
7	52956	26.11	242.45
7	53181	26.21	242.45
7	53406	26.31	242.45
7	53631	26.41	242.45
7	53856	26.51	242.45
7	54081	26.61	242.45
7	54306	26.71	242.45
7	54531	26.81	242.45
7	54756	26.91	242.45
7	54986	27.01	242.45
7	55211	27.11	242.45
7	55436	27.21	242.45
7	55661	27.31	242.45
7	55886	27.41	242.45
7	56111	27.51	242.45
7	56336	27.61	242.45
7	56561	27.71	242.45
7	56786	27.81	242.45
7	57011	27.91	242.45
7	57241	28.01	242.45
7	57466	28.11	242.45
7	57691	28.21	242.45
7	57916	28.31	242.45
7	58141	28.41	242.45
7	58366	28.51	242.45
7	58591	28.61	242.45
7	58816	28.71	242.45
7	59041	28.81	242.45
7	59266	28.91	242.45
8	3122	3.11	4.99968
8	3272	3.21	4.99967
8	3422	3.31	4.99966
8	3572	3.41	4.99966
8	3722	3.51	4.99965
8	3872	3.61	4.99964
8	4022	3.71	4.99964
8	4172	3.81	4.99963
8	4322	3.91	4.99963
8	4476	4.01	4.99963
8	4626	4.11	4.99962
8	4776	4.21	4.99962
8	4926	4.31	4.99962
8	5076	4.41	4.99962
8	5226	4.51	4.99962
8	5376	4.61	4.99962
8	5526	4.71	4.99962
8	5676	4.81	4.99962
8	5826	4.91	4.99962
8	5980	5.01	4.99962
8	6130	5.11	4.99962
8	6280	5.21	4.99962
8	6430	5.31	4.99962
8	6580	5.41	4.99962
8	6730	5.51	4.99962
8	6880	5.61	4.99963
8	7030	5.71	4.99963
8	7180	5.81	4.99963
8	7330	5.91	4.99963
8	7485	6.01	4.99963
8	7667	6.11	4.99964
8	7892	6.21	4.99964
8	8117	6.31	4.99964
8	8342	6.41	4.99964
8	8567	6.51	4.99964
8	8792	6.61	4.99965
8	9017	6.71	4.99965
8	9242	6.81	4.99965
8	9467	6.91	4.99965
8	9697	7.01	4.99965
8	9922	7.11	4.99966
8	10147	7.21	4.99966
8	10372	7.31	4.99966
8	10597	7.41	4.99966
8	10822	7.51	4.99966
8	11047	7.61	4.99967
8	11272	7.71	4.99967
8	11497	7.81	4.99967
8	11722	7.91	4.99967
8	11952	8.01	4.99968
8	12177	8.11	4.99968
8	12402	8.21	4.99968
8	12627	8.31	4.99969
8	12852	8.41	4.99969
8	13077	8.51	4.99969
8	13302	8.61	4.99969
8	13527	8.71	4.9997
8	13752	8.81	4.9997
8	13977	8.91	4.9997
8	14207	9.01	4.99971
8	14432	9.11	4.99971
8	14657	9.21	4.99971
8	14882	9.31	4.99972
8	15107	9.41	4.99972
8	15332	9.51	4.99972
8	15557	9.61	4.99972
8	15782	9.71	4.99973
8	16007	9.81	4.99973
8	16232	9.91	4.99973
8	16462	10.01	4.99974
8	16687	10.11	4.99974
8	16912	10.21	4.99974
8	17137	10.31	4.99975
8	17362	10.41	4.99975
8	17587	10.51	4.99975
8	17812	10.61	4.99976
8	18037	10.71	4.99976
8	18262	10.81	4.99976
8	18487	10.91	4.99976
8	18717	11.01	4.99977
8	18942	11.11	4.99977
8	19167	11.21	4.99977
8	19392	11.31	4.99978
8	19617	11.41	4.99978
8	19842	11.51	4.99978
8	20067	11.61	4.99978
8	20292	11.71	4.99979
8	20517	11.81	4.99979
8	20742	11.91	4.99979
8	20972	12.01	4.99979
8	21197	12.11	4.9998
8	21422	12.21	4.9998
8	21647	12.31	4.9998
8	21872	12.41	4.99981
8	22097	12.51	4.99981
8	22322	12.61	4.99981
8	22547	12.71	4.99981
8	22772	12.81	4.99982
8	22997	12.91	4.99982
8	23227	13.01	4.99982
8	23452	13.11	4.99982
8	23677	13.21	4.99983
8	23902	13.31	4.99983
8	24127	13.41	4.99983
8	24352	13.51	4.99983
8	24577	13.61	4.99983
8	24802	13.71	4.99984
8	25027	13.81	4.99984
8	25252	13.91	4.99984
8	25482	14.01	4.99984
8	25707	14.11	4.99985
8	25932	14.21	4.99985
8	26157	14.31	4.99985
8	26382	14.41	4.99985
8	26607	14.51	4.99985
8	26832	14.61	4.99986
8	27057	14.71	4.99986
8	27282	14.81	4.99986
8	27507	14.91	4.99986
8	27737	15.01	4.99986
8	27962	15.11	4.99987
8	28187	15.21	4.99987
8	28412	15.31	4.99987
8	28637	15.41	4.99987
8	28862	15.51	4.99987
8	29087	15.61	4.99988
8	29312	15.71	4.99988
8	29537	15.81	4.99988
8	29762	15.91	4.99988
8	29993	16.01	4.99988
8	30407	16.11	4.99988
8	30632	16.21	4.99989
8	30857	16.31	4.99989
8	31082	16.41	4.99989
8	31307	16.51	4.99989
8	31532	16.61	4.99989
8	31757	16.71	4.99989
8	31982	16.81	4.99989
8	32207	16.91	4.9999
8	32437	17.01	4.9999
8	32662	17.11	4.9999
8	32887	17.21	4.9999
8	33112	17.31	4.9999
8	33337	17.41	4.9999
8	33562	17.51	4.99991
8	33787	17.61	4.99991
8	34012	17.71	4.99991
8	34237	17.81	4.99991
8	34462	17.91	4.99991
8	34692	18.01	4.99991
8	34917	18.11	4.99991
8	35142	18.21	4.99991
8	35367	18.31	4.99992
8	35592	18.41	4.99992
8	35817	18.51	4.99992
8	36042	18.61	4.99992
8	36267	18.71	4.99992
8	36492	18.81	4.99992
8	36717	18.91	4.99992
8	36947	19.01	4.99992
8	37172	19.11	4.99993
8	37397	19.21	4.99993
8	37622	19.31	4.99993
8	37847	19.41	4.99993
8	38072	19.51	4.99993
8	38297	19.61	4.99993
8	38522	19.71	4.99993
8	38747	19.81	4.99993
8	38972	19.91	4.99993
8	39202	20.01	4.99993
8	39427	20.11	4.99994
8	39652	20.21	4.99994
8	39877	20.31	4.99994
8	40102	20.41	4.99994
8	40327	20.51	4.99994
8	40552	20.61	4.99994
8	40777	20.71	4.99994
8	41002	20.81	4.99994
8	41227	20.91	4.99994
8	41457	21.01	4.99994
8	41682	21.11	4.99994
8	41907	21.21	4.99995
8	42132	21.31	4.99995
8	42357	21.41	4.99995
8	42582	21.51	4.99995
8	42807	21.61	4.99995
8	43032	21.71	4.99995
8	43257	21.81	4.99995
8	43482	21.91	4.99995
8	43712	22.01	4.99995
8	43937	22.11	4.99995
8	44162	22.21	4.99995
8	44387	22.31	4.99995
8	44612	22.41	4.99995
8	44837	22.51	4.99996
8	45062	22.61	4.99996
8	45287	22.71	4.99996
8	45512	22.81	4.99996
8	45737	22.91	4.99996
8	45967	23.01	4.99996
8	46192	23.11	4.99996
8	46417	23.21	4.99996
8	46642	23.31	4.99996
8	46867	23.41	4.99996
8	47092	23.51	4.99996
8	47317	23.61	4.99996
8	47542	23.71	4.99996
8	47767	23.81	4.99996
8	47992	23.91	4.99996
8	48222	24.01	4.99996
8	48447	24.11	4.99997
8	48672	24.21	4.99997
8	48897	24.31	4.99997
8	49122	24.41	4.99997
8	49347	24.51	4.99997
8	49572	24.61	4.99997
8	49797	24.71	4.99997
8	50022	24.81	4.99997
8	50247	24.91	4.99997
8	50477	25.01	4.99997
8	50702	25.11	4.99997
8	50927	25.21	4.99997
8	51152	25.31	4.99997
8	51377	25.41	4.99997
8	51602	25.51	4.99997
8	51827	25.61	4.99997
8	52052	25.71	4.99997
8	52277	25.81	4.99997
8	52502	25.91	4.99997
8	52732	26.01	4.99997
8	52957	26.11	4.99997
8	53182	26.21	4.99997
8	53407	26.31	4.99998
8	53632	26.41	4.99998
8	53857	26.51	4.99998
8	54082	26.61	4.99998
8	54307	26.71	4.99998
8	54532	26.81	4.99998
8	54757	26.91	4.99998
8	54987	27.01	4.99998
8	55212	27.11	4.99998
8	55437	27.21	4.99998
8	55662	27.31	4.99998
8	55887	27.41	4.99998
8	56112	27.51	4.99998
8	56337	27.61	4.99998
8	56562	27.71	4.99998
8	56787	27.81	4.99998
8	57012	27.91	4.99998
8	57242	28.01	4.99998
8	57467	28.11	4.99998
8	57692	28.21	4.99998
8	57917	28.31	4.99998
8	58142	28.41	4.99998
8	58367	28.51	4.99998
8	58592	28.61	4.99998
8	58817	28.71	4.99998
8	59042	28.81	4.99998
8	59267	28.91	4.99998
9	3122	3.11	-0.000103458
9	3272	3.21	-9.29722e-05
9	3422	3.31	-8.30799e-05
9	3572	3.41	-7.35615e-05
9	3722	3.51	-6.46513e-05
9	3872	3.61	-5.65558e-05
9	4022	3.71	-4.92796e-05
9	4172	3.81	-4.23588e-05
9	4322	3.91	-3.58436e-05
9	4476	4.01	-2.98078e-05
9	4626	4.11	-2.42806e-05
9	4776	4.21	-1.9258e-05
9	4926	4.31	-1.47126e-05
9	5076	4.41	-1.06009e-05
9	5226	4.51	-6.86988e-06
9	5376	4.61	-3.46133e-06
9	5526	4.71	-3.15929e-07
9	5676	4.81	2.62407e-06
9	5826	4.91	5.41281e-06
9	5980	5.01	8.09937e-06
9	6130	5.11	1.0727e-05
9	6280	5.21	1.32178e-05
9	6430	5.31	1.5087e-05
9	6580	5.41	1.641e-05
9	6730	5.51	1.7318e-05
9	6880	5.61	1.79197e-05
9	7030	5.71	1.83041e-05
9	7180	5.81	1.85429e-05
9	7330	5.91	1.86933e-05
9	7485	6.01	1.87999e-05
9	7667	6.11	1.88966e-05
9	7892	6.21	1.90084e-05
9	8117	6.31	1.91528e-05
9	8342	6.41	1.93411e-05
9	8567	6.51	1.95798e-05
9	8792	6.61	1.98714e-05
9	9017	6.71	2.0215e-05
9	9242	6.81	2.06078e-05
9	9467	6.91	2.10449e-05
9	9697	7.01	2.15204e-05
9	9922	7.11	2.20277e-05
9	10147	7.21	2.25596e-05
9	10372	7.31	2.3109e-05
9	10597	7.41	2.36687e-05
9	10822	7.51	2.4232e-05
9	11047	7.61	2.47926e-05
9	11272	7.71	2.53447e-05
9	11497	7.81	2.5883e-05
9	11722	7.91	2.64031e-05
9	11952	8.01	2.69009e-05
9	12177	8.11	2.73731e-05
9	12402	8.21	2.78171e-05
9	12627	8.31	2.82307e-05
9	12852	8.41	2.86124e-05
9	13077	8.51	2.8961e-05
9	13302	8.61	2.92759e-05
9	13527	8.71	2.95571e-05
9	13752	8.81	2.98045e-05
9	13977	8.91	3.00186e-05
9	14207	9.01	3.02002e-05
9	14432	9.11	3.03503e-05
9	14657	9.21	3.04698e-05
9	14882	9.31	3.05601e-05
9	15107	9.41	3.06225e-05
9	15332	9.51	3.06585e-05
9	15557	9.61	3.06696e-05
9	15782	9.71	3.06572e-05
9	16007	9.81	3.06228e-05
9	16232	9.91	3.05681e-05
9	16462	10.01	3.04943e-05
9	16687	10.11	3.0403e-05
9	16912	10.21	3.02955e-05
9	17137	10.31	3.01731e-05
9	17362	10.41	3.00371e-05
9	17587	10.51	2.98885e-05
9	17812	10.61	2.97287e-05
9	18037	10.71	2.95585e-05
9	18262	10.81	2.93789e-05
9	18487	10.91	2.91909e-05
9	18717	11.01	2.89952e-05
9	18942	11.11	2.87926e-05
9	19167	11.21	2.85838e-05
9	19392	11.31	2.83694e-05
9	19617	11.41	2.81501e-05
9	19842	11.51	2.79263e-05
9	20067	11.61	2.76986e-05
9	20292	11.71	2.74673e-05
9	20517	11.81	2.72329e-05
9	20742	11.91	2.69958e-05
9	20972	12.01	2.67562e-05
9	21197	12.11	2.65145e-05
9	21422	12.21	2.62709e-05
9	21647	12.31	2.60257e-05
9	21872	12.41	2.57792e-05
9	22097	12.51	2.55314e-05
9	22322	12.61	2.52827e-05
9	22547	12.71	2.50332e-05
9	22772	12.81	2.4783e-05
9	22997	12.91	2.45324e-05
9	23227	13.01	2.42813e-05
9	23452	13.11	2.40301e-05
9	23677	13.21	2.37788e-05
9	23902	13.31	2.35275e-05
9	24127	13.41	2.32764e-05
9	24352	13.51	2.30255e-05
9	24577	13.61	2.27749e-05
9	24802	13.71	2.25248e-05
9	25027	13.81	2.22752e-05
9	25252	13.91	2.20262e-05
9	25482	14.01	2.17779e-05
9	25707	14.11	2.15305e-05
9	25932	14.21	2.12838e-05
9	26157	14.31	2.10382e-05
9	26382	14.41	2.07935e-05
9	26607	14.51	2.05499e-05
9	26832	14.61	2.03075e-05
9	27057	14.71	2.00663e-05
9	27282	14.81	1.98263e-05
9	27507	14.91	1.95877e-05
9	27737	15.01	1.93505e-05
9	27962	15.11	1.91147e-05
9	28187	15.21	1.88804e-05
9	28412	15.31	1.86477e-05
9	28637	15.41	1.84165e-05
9	28862	15.51	1.8187e-05
9	29087	15.61	1.79591e-05
9	29312	15.71	1.77329e-05
9	29537	15.81	1.75085e-05
9	29762	15.91	1.72858e-05
9	29993	16.01	1.70649e-05
9	30407	16.11	1.68459e-05
9	30632	16.21	1.66287e-05
9	30857	16.31	1.64134e-05
9	31082	16.41	1.62e-05
9	31307	16.51	1.59885e-05
9	31532	16.61	1.5779e-05
9	31757	16.71	1.55714e-05
9	31982	16.81	1.53658e-05
9	32207	16.91	1.51622e-05
9	32437	17.01	1.49605e-05
9	32662	17.11	1.47609e-05
9	32887	17.21	1.45632e-05
9	33112	17.31	1.43676e-05
9	33337	17.41	1.4174e-05
9	33562	17.51	1.39824e-05
9	33787	17.61	1.37929e-05
9	34012	17.71	1.36053e-05
9	34237	17.81	1.34198e-05
9	34462	17.91	1.32363e-05
9	34692	18.01	1.30549e-05
9	34917	18.11	1.28754e-05
9	35142	18.21	1.2698e-05
9	35367	18.31	1.25225e-05
9	35592	18.41	1.23491e-05
9	35817	18.51	1.21777e-05
9	36042	18.61	1.20082e-05
9	36267	18.71	1.18408e-05
9	36492	18.81	1.16753e-05
9	36717	18.91	1.15117e-05
9	36947	19.01	1.13501e-05
9	37172	19.11	1.11905e-05
9	37397	19.21	1.10328e-05
9	37622	19.31	1.0877e-05
9	37847	19.41	1.07231e-05
9	38072	19.51	1.05711e-05
9	38297	19.61	1.04209e-05
9	38522	19.71	1.02727e-05
9	38747	19.81	1.01263e-05
9	38972	19.91	9.98171e-06
9	39202	20.01	9.83897e-06
9	39427	20.11	9.69804e-06
9	39652	20.21	9.55891e-06
9	39877	20.31	9.42155e-06
9	40102	20.41	9.28597e-06
9	40327	20.51	9.15213e-06
9	40552	20.61	9.02003e-06
9	40777	20.71	8.88966e-06
9	41002	20.81	8.76098e-06
9	41227	20.91	8.634e-06
9	41457	21.01	8.50868e-06
9	41682	21.11	8.38503e-06
9	41907	21.21	8.26301e-06
9	42132	21.31	8.14262e-06
9	42357	21.41	8.02384e-06
9	42582	21.51	7.90665e-06
9	42807	21.61	7.79104e-06
9	43032	21.71	7.67698e-06
9	43257	21.81	7.56447e-06
9	43482	21.91	7.45348e-06
9	43712	22.01	7.34401e-06
9	43937	22.11	7.23603e-06
9	44162	22.21	7.12952e-06
9	44387	22.31	7.02448e-06
9	44612	22.41	6.92088e-06
9	44837	22.51	6.81871e-06
9	45062	22.61	6.71796e-06
9	45287	22.71	6.6186e-06
9	45512	22.81	6.52062e-06
9	45737	22.91	6.424e-06
9	45967	23.01	6.32874e-06
9	46192	23.11	6.2348e-06
9	46417	23.21	6.14218e-06
[...]
35	118414	54.929646209057	2
35	118644	55.02963852215	2
35	118869	55.129643835123	2
35	119094	55.229649147965	2
35	119319	55.329641460661	2
35	119544	55.429646773196	2
35	119769	55.529639085553	2
35	119994	55.629644397714	2
35	120219	55.729636709661	2
36	111477	52.054479988064	0.099992316889
36	111702	52.154485304797	0.100005316733
36	111927	52.254477621375	0.099992316578
36	112152	52.354482937801	0.100005316426
36	112377	52.454488254077	0.100005316276
36	112602	52.554480570206	0.099992316129
36	112827	52.65448588619	0.100005315984
36	113052	52.75447820203	0.09999231584
36	113277	52.85448351773	0.1000053157
36	113502	52.954488833292	0.100005315562
36	113732	53.054481148718	0.099992315426
36	113957	53.15448646401	0.100005315292
36	114182	53.254478779169	0.099992315159
36	114407	53.354484094198	0.100005315029
36	114632	53.454489409099	0.100005314901
36	114857	53.554481723874	0.099992314775
36	115082	53.654487038525	0.100005314651
36	115307	53.754479353054	0.099992314529
36	115532	53.854484667463	0.100005314409
36	115757	53.954476981754	0.099992314291
36	115987	54.054482295929	0.100005314175
36	116212	54.15448760999	0.100005314061
36	116437	54.254479923937	0.099992313947
36	116662	54.354485237774	0.100005313837
36	116887	54.454477551501	0.099992313727
36	117112	54.554482865121	0.10000531362
36	117778	54.654480299159	0.099997434038
36	118003	54.754485612569	0.10000531341
36	118228	54.854477925876	0.099992313307
36	118453	54.954483239078	0.100005313202
36	118683	55.054488552171	0.100005313093
36	118908	55.154480865144	0.099992312973
36	119133	55.254486177986	0.100005312842
36	119358	55.354478490682	0.099992312696
36	119583	55.454483803217	0.100005312535
36	119808	55.554489115574	0.100005312357
36	120033	55.654481427735	0.099992312161
36	120258	55.754486739682	0.100005311947
37	111477	52.054479988064	1
37	111702	52.154485304797	1
37	111927	52.254477621375	1
37	112152	52.354482937801	1
37	112377	52.454488254077	1
37	112602	52.554480570206	1
37	112827	52.65448588619	1
37	113052	52.75447820203	1
37	113277	52.85448351773	1
37	113502	52.954488833292	1
37	113732	53.054481148718	1
37	113957	53.15448646401	1
37	114182	53.254478779169	1
37	114407	53.354484094198	1
37	114632	53.454489409099	1
37	114857	53.554481723874	1
37	115082	53.654487038525	1
37	115307	53.754479353054	1
37	115532	53.854484667463	1
37	115757	53.954476981754	1
37	115987	54.054482295929	1
37	116212	54.15448760999	1
37	116437	54.254479923937	1
37	116662	54.354485237774	1
37	116887	54.454477551501	1
37	117112	54.554482865121	1
37	117778	54.654480299159	1
37	118003	54.754485612569	1
37	118228	54.854477925876	1
37	118453	54.954483239078	1
37	118683	55.054488552171	1
37	118908	55.154480865144	1
37	119133	55.254486177986	1
37	119358	55.354478490682	1
37	119583	55.454483803217	1
37	119808	55.554489115574	1
37	120033	55.654481427735	1
37	120258	55.754486739682	1
38	111477	52.054479988064	0.099992316889
38	111702	52.154485304797	0.100005316733
38	111927	52.254477621375	0.099992316578
38	112152	52.354482937801	0.100005316426
38	112377	52.454488254077	0.100005316276
38	112602	52.554480570206	0.099992316129
38	112827	52.65448588619	0.100005315984
38	113052	52.75447820203	0.09999231584
38	113277	52.85448351773	0.1000053157
38	113502	52.954488833292	0.100005315562
38	113732	53.054481148718	0.099992315426
38	113957	53.15448646401	0.100005315292
38	114182	53.254478779169	0.099992315159
38	114407	53.354484094198	0.100005315029
38	114632	53.454489409099	0.100005314901
38	114857	53.554481723874	0.099992314775
38	115082	53.654487038525	0.100005314651
38	115307	53.754479353054	0.099992314529
38	115532	53.854484667463	0.100005314409
38	115757	53.954476981754	0.099992314291
38	115987	54.054482295929	0.100005314175
38	116212	54.15448760999	0.100005314061
38	116437	54.254479923937	0.099992313947
38	116662	54.354485237774	0.100005313837
38	116887	54.454477551501	0.099992313727
38	117112	54.554482865121	0.10000531362
38	117778	54.654480299159	0.099997434038
38	118003	54.754485612569	0.10000531341
38	118228	54.854477925876	0.099992313307
38	118453	54.954483239078	0.100005313202
38	118683	55.054488552171	0.100005313093
38	118908	55.154480865144	0.099992312973
38	119133	55.254486177986	0.100005312842
38	119358	55.354478490682	0.099992312696
38	119583	55.454483803217	0.100005312535
38	119808	55.554489115574	0.100005312357
38	120033	55.654481427735	0.099992312161
38	120258	55.754486739682	0.100005311947
39	111477	52.054479988064	1
39	111702	52.154485304797	1
39	111927	52.254477621375	1
39	112152	52.354482937801	1
39	112377	52.454488254077	1
39	112602	52.554480570206	1
39	112827	52.65448588619	1
39	113052	52.75447820203	1
39	113277	52.85448351773	1
39	113502	52.954488833292	1
39	113732	53.054481148718	1
39	113957	53.15448646401	1
39	114182	53.254478779169	1
39	114407	53.354484094198	1
39	114632	53.454489409099	1
39	114857	53.554481723874	1
39	115082	53.654487038525	1
39	115307	53.754479353054	1
39	115532	53.854484667463	1
39	115757	53.954476981754	1
39	115987	54.054482295929	1
39	116212	54.15448760999	1
39	116437	54.254479923937	1
39	116662	54.354485237774	1
39	116887	54.454477551501	1
39	117112	54.554482865121	1
39	117778	54.654480299159	1
39	118003	54.754485612569	1
39	118228	54.854477925876	1
39	118453	54.954483239078	1
39	118683	55.054488552171	1
39	118908	55.154480865144	1
39	119133	55.254486177986	1
39	119358	55.354478490682	1
39	119583	55.454483803217	1
39	119808	55.554489115574	1
39	120033	55.654481427735	1
39	120258	55.754486739682	1
40	111483	52.054480018085	0.099992316889
40	111708	52.154485334818	0.100005316733
40	111933	52.254477651396	0.099992316578
40	112158	52.354482967822	0.100005316426
40	112383	52.454488284098	0.100005316276
40	112608	52.554480600227	0.099992316129
40	112833	52.654485916211	0.100005315984
40	113058	52.754478232051	0.09999231584
40	113283	52.854483547751	0.1000053157
40	113508	52.954488863313	0.100005315562
40	113738	53.054481178739	0.099992315426
40	113963	53.154486494031	0.100005315292
40	114188	53.25447880919	0.099992315159
40	114413	53.354484124219	0.100005315029
40	114638	53.45448943912	0.100005314901
40	114863	53.554481753895	0.099992314775
40	115088	53.654487068546	0.100005314651
40	115313	53.754479383075	0.099992314529
40	115538	53.854484697484	0.100005314409
40	115763	53.954477011775	0.099992314291
40	115993	54.05448232595	0.100005314175
40	116218	54.154487640011	0.100005314061
40	116443	54.254479953958	0.099992313947
40	116668	54.354485267795	0.100005313837
40	116893	54.454477581522	0.099992313727
40	117118	54.554482895142	0.10000531362
40	117784	54.65448032918	0.099997434038
40	118009	54.75448564259	0.10000531341
40	118234	54.854477955897	0.099992313307
40	118459	54.954483269099	0.100005313202
40	118689	55.054488582192	0.100005313093
40	118914	55.154480895165	0.099992312973
40	119139	55.254486208007	0.100005312842
40	119364	55.354478520703	0.099992312696
40	119589	55.454483833238	0.100005312535
40	119814	55.554489145595	0.100005312357
40	120039	55.654481457756	0.099992312161
40	120264	55.754486769703	0.100005311947
41	111483	52.054480018085	2
41	111708	52.154485334818	2
41	111933	52.254477651396	2
41	112158	52.354482967822	2
41	112383	52.454488284098	2
41	112608	52.554480600227	2
41	112833	52.654485916211	2
41	113058	52.754478232051	2
41	113283	52.854483547751	2
41	113508	52.954488863313	2
41	113738	53.054481178739	2
41	113963	53.154486494031	2
41	114188	53.25447880919	2
41	114413	53.354484124219	2
41	114638	53.45448943912	2
41	114863	53.554481753895	2
41	115088	53.654487068546	2
41	115313	53.754479383075	2
41	115538	53.854484697484	2
41	115763	53.954477011775	2
41	115993	54.05448232595	2
41	116218	54.154487640011	2
41	116443	54.254479953958	2
41	116668	54.354485267795	2
41	116893	54.454477581522	2
41	117118	54.554482895142	2
41	117784	54.65448032918	2
41	118009	54.75448564259	2
41	118234	54.854477955897	2
41	118459	54.954483269099	2
41	118689	55.054488582192	2
41	118914	55.154480895165	2
41	119139	55.254486208007	2
41	119364	55.354478520703	2
41	119589	55.454483833238	2
41	119814	55.554489145595	2
41	120039	55.654481457756	2
41	120264	55.754486769703	2
42	111489	52.054480048105	0.099992316889
42	111714	52.154485364838	0.100005316733
42	111939	52.254477681416	0.099992316578
42	112164	52.354482997842	0.100005316426
42	112389	52.454488314118	0.100005316276
42	112614	52.554480630247	0.099992316129
42	112839	52.654485946231	0.100005315984
42	113064	52.754478262071	0.09999231584
42	113289	52.854483577771	0.1000053157
42	113514	52.954488893333	0.100005315562
42	113744	53.054481208759	0.099992315426
42	113969	53.154486524051	0.100005315292
42	114194	53.25447883921	0.099992315159
42	114419	53.354484154239	0.100005315029
42	114644	53.45448946914	0.100005314901
42	114869	53.554481783915	0.099992314775
42	115094	53.654487098566	0.100005314651
42	115319	53.754479413095	0.099992314529
42	115544	53.854484727504	0.100005314409
42	115769	53.954477041795	0.099992314291
42	115999	54.05448235597	0.100005314175
42	116224	54.154487670031	0.100005314061
42	116449	54.254479983978	0.099992313947
42	116674	54.354485297815	0.100005313837
42	116899	54.454477611542	0.099992313727
42	117124	54.554482925162	0.10000531362
42	117790	54.6544803592	0.099997434038
42	118015	54.75448567261	0.10000531341
42	118240	54.854477985917	0.099992313307
42	118465	54.954483299119	0.100005313202
42	118695	55.054488612212	0.100005313093
42	118920	55.154480925185	0.099992312973
42	119145	55.254486238027	0.100005312842
42	119370	55.354478550723	0.099992312696
42	119595	55.454483863258	0.100005312535
42	119820	55.554489175615	0.100005312357
42	120045	55.654481487776	0.099992312161
42	120270	55.754486799723	0.100005311947
43	111489	52.054480048105	3
43	111714	52.154485364838	3
43	111939	52.254477681416	3
43	112164	52.354482997842	3
43	112389	52.454488314118	3
43	112614	52.554480630247	3
43	112839	52.654485946231	3
43	113064	52.754478262071	3
43	113289	52.854483577771	3
43	113514	52.954488893333	3
43	113744	53.054481208759	3
43	113969	53.154486524051	3
43	114194	53.25447883921	3
43	114419	53.354484154239	3
43	114644	53.45448946914	3
43	114869	53.554481783915	3
43	115094	53.654487098566	3
43	115319	53.754479413095	3
43	115544	53.854484727504	3
43	115769	53.954477041795	3
43	115999	54.05448235597	3
43	116224	54.154487670031	3
43	116449	54.254479983978	3
43	116674	54.354485297815	3
43	116899	54.454477611542	3
43	117124	54.554482925162	3
43	117790	54.6544803592	3
43	118015	54.75448567261	3
43	118240	54.854477985917	3
43	118465	54.954483299119	3
43	118695	55.054488612212	3
43	118920	55.154480925185	3
43	119145	55.254486238027	3
43	119370	55.354478550723	3
43	119595	55.454483863258	3
43	119820	55.554489175615	3
43	120045	55.654481487776	3
43	120270	55.754486799723	3
44	113568	53	0
44	115823	54	0
44	118519	55	0
45	113568	53	0.01561
45	115823	54	0.01561
45	118519	55	0.016623987182
46	113568	53	0
46	115823	54	0
46	118519	55	0
47	113569	53	1
47	115824	54	1
47	118520	55	1
48	113569	53	0.01561
48	115824	54	0.01561
48	118520	55	0.016426
49	113569	53	0
49	115824	54	0
49	118520	55	0
50	113570	53	2
50	115825	54	2
50	118521	55	2
51	113570	53	0.01561
51	115825	54	0.01561
51	118521	55	0.016426
52	113570	53	0
52	115825	54	0
52	118521	55	0
53	113571	53	3
53	115826	54	3
53	118522	55	3
54	113571	53	0.01561
54	115826	54	0.01561
54	118522	55	0.016426
55	113571	53	0
55	115826	54	0
55	118522	55	0
56	111590	52.11	16.4665
56	111815	52.21	16.4435
56	112040	52.31	16.4208
56	112265	52.41	16.3985
56	112490	52.51	16.3766
56	112715	52.61	16.355
56	112940	52.71	16.3337
56	113165	52.81	16.3128
56	113390	52.91	16.2922
56	113620	53.01	16.2719
56	113845	53.11	16.2519
56	114070	53.21	16.2323
56	114295	53.31	16.2129
56	114520	53.41	16.1939
56	114745	53.51	16.1752
56	114970	53.61	16.1567
56	115195	53.71	16.1386
56	115420	53.81	16.1207
56	115645	53.91	16.1031
56	115875	54.01	16.0858
56	116100	54.11	16.0687
56	116325	54.21	16.0519
56	116550	54.31	16.0354
56	116775	54.41	16.0192
56	117000	54.51	16.0032
56	117666	54.61	15.9874
56	117891	54.71	15.9719
56	118116	54.81	15.9565
56	118341	54.91	15.9405
56	118571	55.01	15.9234
56	118796	55.11	15.9047
56	119021	55.21	15.8841
56	119246	55.31	15.8613
56	119471	55.41	15.836
56	119696	55.51	15.8082
56	119921	55.61	15.7776
56	120146	55.71	15.7443
57	111590	52.11	-0.231905
57	111815	52.21	-0.228274
57	112040	52.31	-0.224699
57	112265	52.41	-0.221184
57	112490	52.51	-0.217722
57	112715	52.61	-0.214313
57	112940	52.71	-0.210957
57	113165	52.81	-0.207656
57	113390	52.91	-0.204404
57	113620	53.01	-0.201201
57	113845	53.11	-0.198047
57	114070	53.21	-0.194944
57	114295	53.31	-0.191892
57	114520	53.41	-0.188888
57	114745	53.51	-0.185928
57	114970	53.61	-0.183015
57	115195	53.71	-0.180149
57	115420	53.81	-0.177326
57	115645	53.91	-0.174546
57	115875	54.01	-0.171808
57	116100	54.11	-0.169114
57	116325	54.21	-0.166465
57	116550	54.31	-0.163857
57	116775	54.41	-0.161288
57	117000	54.51	-0.15876
57	117666	54.61	-0.156272
57	117891	54.71	-0.154055
57	118116	54.81	-0.156073
57	118341	54.91	-0.164475
57	118571	55.01	-0.178044
57	118796	55.11	-0.19574
57	119021	55.21	-0.216682
57	119246	55.31	-0.240122
57	119471	55.41	-0.265426
57	119696	55.51	-0.292059
57	119921	55.61	-0.319571
57	120146	55.71	-0.347585
58	111590	52.11	4
58	111815	52.21	4
58	112040	52.31	4
58	112265	52.41	4
58	112490	52.51	4
58	112715	52.61	4
58	112940	52.71	4
58	113165	52.81	4
58	113390	52.91	4
58	113620	53.01	4
58	113845	53.11	4
58	114070	53.21	4
58	114295	53.31	4
58	114520	53.41	4
58	114745	53.51	4
58	114970	53.61	4
58	115195	53.71	4
58	115420	53.81	4
58	115645	53.91	4
58	115875	54.01	4
58	116100	54.11	4
58	116325	54.21	4
58	116550	54.31	4
58	116775	54.41	4
58	117000	54.51	4
58	117666	54.61	4
58	117891	54.71	4
58	118116	54.81	4
58	118341	54.91	4
58	118571	55.01	4
58	118796	55.11	4
58	119021	55.21	4
58	119246	55.31	4
58	119471	55.41	4
58	119696	55.51	4
58	119921	55.61	4
58	120146	55.71	4
59	111590	52.11	-0.0366198
59	111815	52.21	-0.0360458
59	112040	52.31	-0.0354654
59	112265	52.41	-0.034881
59	112490	52.51	-0.034367
59	112715	52.61	-0.03384
59	112940	52.71	-0.0333039
59	113165	52.81	-0.0327613
59	113390	52.91	-0.0322868
59	113620	53.01	-0.0317978
59	113845	53.11	-0.0312982
59	114070	53.21	-0.0307906
59	114295	53.31	-0.0302779
59	114520	53.41	-0.0298344
59	114745	53.51	-0.0293776
59	114970	53.61	-0.0289104
59	115195	53.71	-0.0284357
59	115420	53.81	-0.0280286
59	115645	53.91	-0.0276054
59	115875	54.01	-0.0271705
59	116100	54.11	-0.026727
59	116325	54.21	-0.0262774
59	116550	54.31	-0.0258964
59	116775	54.41	-0.0255005
59	117000	54.51	-0.0250931
59	117666	54.61	-0.0246777
59	117891	54.71	-0.0202443
59	118116	54.81	0.0510902
59	118341	54.91	0.10913
59	118571	55.01	0.155841
59	118796	55.11	0.192914
59	119021	55.21	0.2218
59	119246	55.31	0.243749
59	119471	55.41	0.259833
59	119696	55.51	0.270971
59	119921	55.61	0.277953
59	120146	55.71	0.281455
60	111590	52.11	-0.0334028
60	111815	52.21	-0.0327958
60	112040	52.31	-0.0321958
60	112265	52.41	-0.0316032
60	112490	52.51	-0.0314206
60	112715	52.61	-0.0308429
60	112940	52.71	-0.0302744
60	113165	52.81	-0.0297115
60	113390	52.91	-0.0295571
60	113620	53.01	-0.0290099
60	113845	53.11	-0.0284705
60	114070	53.21	-0.0279352
60	114295	53.31	-0.0274083
60	114520	53.41	-0.0272887
60	114745	53.51	-0.0267791
60	114970	53.61	-0.0262719
60	115195	53.71	-0.0257716
60	115420	53.81	-0.025681
60	115645	53.91	-0.0251911
60	115875	54.01	-0.0247103
60	116100	54.11	-0.024235
60	116325	54.21	-0.0237656
60	116550	54.31	-0.0237049
60	116775	54.41	-0.0232478
60	117000	54.51	-0.0227947
60	117666	54.61	-0.0223501
60	117891	54.71	0
60	118116	54.81	0.376097
60	118341	54.91	0.372333
60	118571	55.01	0.366414
60	118796	55.11	0.358744
60	119021	55.21	0.349668
60	119246	55.31	0.339476
60	119471	55.41	0.328418
60	119696	55.51	0.316705
60	119921	55.61	0.304516
60	120146	55.71	0.292002
61	111590	52.11	28.0097
61	111815	52.21	28.0061
61	112040	52.31	28.0025
61	112265	52.41	27.999
61	112490	52.51	27.9955
61	112715	52.61	27.9921
61	112940	52.71	27.9888
61	113165	52.81	27.9855
61	113390	52.91	27.9822
61	113620	53.01	27.979
61	113845	53.11	27.9758
61	114070	53.21	27.9727
61	114295	53.31	27.9697
61	114520	53.41	27.9667
61	114745	53.51	27.9637
61	114970	53.61	27.9608
61	115195	53.71	27.9579
61	115420	53.81	27.9551
61	115645	53.91	27.9523
61	115875	54.01	27.9496
61	116100	54.11	27.9469
61	116325	54.21	27.9443
61	116550	54.31	27.9417
61	116775	54.41	27.9391
61	117000	54.51	27.9366
61	117666	54.61	27.9341
61	117891	54.71	27.9319
61	118116	54.81	27.9339
61	118341	54.91	27.9423
61	118571	55.01	27.9558
61	118796	55.11	27.9735
61	119021	55.21	27.9945
61	119246	55.31	28.0179
61	119471	55.41	28.0432
61	119696	55.51	28.0699
61	119921	55.61	28.0974
61	120146	55.71	28.1254
62	111590	52.11	1407.14
62	111815	52.21	1409.94
62	112040	52.31	1412.74
62	112265	52.41	1415.54
62	112490	52.51	1418.34
62	112715	52.61	1421.14
62	112940	52.71	1423.94
62	113165	52.81	1426.74
62	113390	52.91	1429.54
62	113620	53.01	1432.34
62	113845	53.11	1435.14
62	114070	53.21	1437.93
62	114295	53.31	1440.73
62	114520	53.41	1443.53
62	114745	53.51	1446.32
62	114970	53.61	1449.12
62	115195	53.71	1451.92
62	115420	53.81	1454.71
62	115645	53.91	1457.51
62	115875	54.01	1460.3
62	116100	54.11	1463.1
62	116325	54.21	1465.89
62	116550	54.31	1468.69
62	116775	54.41	1471.48
62	117000	54.51	1474.27
62	117666	54.61	1477.07
62	117891	54.71	1479.86
62	118116	54.81	1482.65
62	118341	54.91	1485.45
62	118571	55.01	1488.24
62	118796	55.11	1491.04
62	119021	55.21	1493.84
62	119246	55.31	1496.64
62	119471	55.41	1499.44
62	119696	55.51	1502.25
62	119921	55.61	1505.05
62	120146	55.71	1507.87
63	111590	52.11	242.45
63	111815	52.21	242.45
63	112040	52.31	242.45
63	112265	52.41	242.45
63	112490	52.51	242.45
63	112715	52.61	242.45
63	112940	52.71	242.45
63	113165	52.81	242.45
63	113390	52.91	242.45
63	113620	53.01	242.45
63	113845	53.11	242.45
63	114070	53.21	242.45
63	114295	53.31	242.45
63	114520	53.41	242.45
63	114745	53.51	242.45
63	114970	53.61	242.45
63	115195	53.71	242.45
63	115420	53.81	242.45
63	115645	53.91	242.45
63	115875	54.01	242.45
63	116100	54.11	242.45
63	116325	54.21	242.45
63	116550	54.31	242.45
63	116775	54.41	242.45
63	117000	54.51	242.45
63	117666	54.61	242.45
63	117891	54.71	242.45
63	118116	54.81	242.45
63	118341	54.91	242.45
63	118571	55.01	242.45
63	118796	55.11	242.45
63	119021	55.21	242.45
63	119246	55.31	242.45
63	119471	55.41	242.45
63	119696	55.51	242.45
63	119921	55.61	242.45
63	120146	55.71	242.45
64	113572	53	4
64	115827	54	4
64	118523	55	4
65	113572	53	0.01561
65	115827	54	0.01561
65	118523	55	0.016524626932
66	113572	53	0
66	115827	54	0
66	118523	55	0
67	118021	54.754485739204	0.100005313359
67	118246	54.854478052458	0.099992313254
67	118471	54.954483365606	0.100005313148
67	118701	55.054488678639	0.100005313033
67	118926	55.154480991547	0.099992312908
67	119151	55.254486304316	0.100005312769
67	119376	55.354478616932	0.099992312616
67	119601	55.454483929379	0.100005312447
67	119826	55.554489241638	0.100005312259
67	120051	55.654481553693	0.099992312055
67	120276	55.754486865524	0.100005311831
68	118021	54.754485739204	4
68	118246	54.854478052458	4
68	118471	54.954483365606	4
68	118701	55.054488678639	4
68	118926	55.154480991547	4
68	119151	55.254486304316	4
68	119376	55.354478616932	4
68	119601	55.454483929379	4
68	119826	55.554489241638	4
68	120051	55.654481553693	4
68	120276	55.754486865524	4
69	118104	54.80353587236	0.099992313256
69	118329	54.903541185508	0.100005313148
69	118559	55.003546498544	0.100005313036
69	118784	55.103538811455	0.099992312911
69	119009	55.203544124228	0.100005312773
69	119234	55.303536436848	0.09999231262
69	119459	55.403541749299	0.100005312451
69	119684	55.503547061563	0.100005312264
69	119909	55.603539373622	0.099992312059
69	120134	55.703544685458	0.100005311836
70	118104	54.80353587236	4
70	118329	54.903541185508	4
70	118559	55.003546498544	4
70	118784	55.103538811455	4
70	119009	55.203544124228	4
70	119234	55.303536436848	4
70	119459	55.403541749299	4
70	119684	55.503547061563	4
70	119909	55.603539373622	4
70	120134	55.703544685458	4

