version 2
run LaneChange-1-20210813-18:12:33-3341
attr configname LaneChange
attr datetime 20210813-18:12:33
attr experiment LaneChange
attr inifile omnetpp.ini
attr iterationvars "$nCars=8, $platoonSize=8, $nLanes=1, $vtype=\"vtypeauto\", $ploegH=0.5, $controller=1, $0=\"PLOEG\", $leaderHeadway=1.2, $beaconInterval=-1, $priority=4, $packetSize=200, $1=2, $2=0.5"
attr iterationvarsf nCars=8,platoonSize=8,nLanes=1,vtype=vtypeauto,ploegH=0.5,controller=1,PLOEG,leaderHeadway=1.2,beaconInterval=-1,priority=4,packetSize=200,2,0.5-
attr measurement "$nCars=8, $platoonSize=8, $nLanes=1, $vtype=\"vtypeauto\", $ploegH=0.5, $controller=1, $0=\"PLOEG\", $leaderHeadway=1.2, $beaconInterval=-1, $priority=4, $packetSize=200, $1=2, $2=0.5"
attr network Highway
attr processid 3341
attr repetition 0
attr replication #0
attr resultdir results
attr runnumber 1
attr seedset 0
itervar beaconInterval -1
itervar controller 1
itervar leaderHeadway 1.2
itervar nCars 8
itervar nLanes 1
itervar packetSize 200
itervar platoonSize 8
itervar ploegH 0.5
itervar priority 4
itervar vtype "\"vtypeauto\""
param *.manager.command "\"sumo-gui\""
param *.manager.ignoreGuiCommands false
param *.node[*].scenario_type "\"AutoLaneChangeScenario\""
param *.playgroundSizeX 65000m
param *.playgroundSizeY 25000m
param *.playgroundSizeZ 50m
param *.annotations.draw false
param *.obstacles.debug false
param *.world.useTorus false
param *.world.use2D false
param *.manager.updateInterval 0.01s
param *.manager.host "\"localhost\""
param *.manager.moduleType "\"vtypeauto=org.car2x.plexe.PlatoonCar vtypehuman=0\""
param *.manager.moduleName "\"vtypeauto=node vtypehuman=0\""
param *.manager.moduleDisplayString "\"\""
param *.manager.autoShutdown true
param *.manager.margin 25
param *.connectionManager.sendDirect true
param *.connectionManager.maxInterfDist 2600m
param *.connectionManager.drawMaxIntfDist false
param *.**.nic.mac1609_4.useServiceChannel false
param *.**.nic.mac1609_4.txPower 100mW
param *.**.nic.mac1609_4.bitrate 6Mbps
param *.**.nic.mac1609_4.useAcks true
param *.**.nic.mac1609_4.ackErrorRate 0.0
param *.**.nic.mac1609_4.frameErrorRate 0.0
param *.**.nic.phy80211p.minPowerLevel -94dBm
param *.**.nic.phy80211p.maxTXPower 100mW
param *.**.nic.phy80211p.useNoiseFloor true
param *.**.nic.phy80211p.noiseFloor -95dBm
param *.**.nic.phy80211p.decider "xmldoc(\"config.xml\")"
param *.**.nic.phy80211p.analogueModels "xmldoc(\"config.xml\")"
param *.**.nic.phy80211p.usePropagationDelay true
param *.node[*].mobility.x 0
param *.node[*].mobility.y 0
param *.node[*].mobility.z 1.895
param **.seed 0
param *.manager.configFile "\"./sumocfg/ring.sumo.cfg\""
param *.manager.launchConfig "xmldoc(\"./sumocfg/ring.launchd.xml\")"
param **.numberOfCars 8
param **.numberOfCarsPerPlatoon 8
param **.numberOfLanes 1
param **.dummyvtype "\"vtypeauto\""
param *.node[*].helper_type "\"PositionHelper\""
param *.node[*].scenario.caccC1 0.5
param *.node[*].scenario.caccXi 1
param *.node[*].scenario.caccOmegaN "0.2 Hz"
param *.node[*].scenario.caccSpacing "5 m"
param *.node[*].scenario.engineTau "0.5 s"
param *.node[*].scenario.ploegH 0.5s
param *.node[*].scenario.ploegKp 0.2
param *.node[*].scenario.ploegKd 0.7
param *.node[*].scenario.useRealisticEngine false
param **.dummycontroller 1
param *.node[*].scenario.controller "\"PLOEG\""
param *.node[*].scenario.accHeadway "1 s"
param *.node[*].scenario.leaderHeadway "1.2 s"
param *.node[*].scenario.platooningVType "\"vtypeauto\""
param *.node[*].scenario.leaderSpeed "0 kmph"
param *.node[*].appl_type "\"SimplePlatooningApp\""
param *.node[*].protocol_type "\"SimplePlatooningBeaconing\""
param *.node[*].prot.beaconingInterval -1s
param *.node[*].prot.priority 4
param *.node[*].prot.packetSize 200
param *.node[*].prot.useControllerAcceleration true
param **.traffic_type "\"RingTrafficManager\""
param **.traffic.platooningVType "\"vtypeauto\""
param **.traffic.nCars 8
param **.traffic.platoonSize "intuniform(3, 8, 5)"
param **.traffic.nPlatoons 6
param **.traffic.nLanes 3
param **.traffic.platoonInsertTime "1 s"
param **.traffic.platoonInsertSpeed "uniform(80 kmph, 120 kmph, 6)"
param **.traffic.platoonInsertDistance "2 m"
param **.traffic.platoonInsertHeadway "0.5 s"
param **.traffic.platoonLeaderHeadway "1.2 s"

vector 0 Highway.node[0].appl distance ETV
vector 1 Highway.node[0].appl relativeSpeed ETV
vector 2 Highway.node[0].appl nodeId ETV
vector 3 Highway.node[0].appl acceleration ETV
vector 4 Highway.node[0].appl controllerAcceleration ETV
vector 5 Highway.node[0].appl speed ETV
vector 6 Highway.node[0].appl posx ETV
vector 7 Highway.node[0].appl posy ETV
vector 8 Highway.node[1].appl distance ETV
vector 9 Highway.node[1].appl relativeSpeed ETV
vector 10 Highway.node[1].appl nodeId ETV
vector 11 Highway.node[1].appl acceleration ETV
vector 12 Highway.node[1].appl controllerAcceleration ETV
vector 13 Highway.node[1].appl speed ETV
vector 14 Highway.node[1].appl posx ETV
vector 15 Highway.node[1].appl posy ETV
vector 16 Highway.node[2].appl distance ETV
vector 17 Highway.node[2].appl relativeSpeed ETV
vector 18 Highway.node[2].appl nodeId ETV
vector 19 Highway.node[2].appl acceleration ETV
vector 20 Highway.node[2].appl controllerAcceleration ETV
vector 21 Highway.node[2].appl speed ETV
vector 22 Highway.node[2].appl posx ETV
vector 23 Highway.node[2].appl posy ETV
vector 24 Highway.node[3].appl distance ETV
vector 25 Highway.node[3].appl relativeSpeed ETV
vector 26 Highway.node[3].appl nodeId ETV
vector 27 Highway.node[3].appl acceleration ETV
vector 28 Highway.node[3].appl controllerAcceleration ETV
vector 29 Highway.node[3].appl speed ETV
vector 30 Highway.node[3].appl posx ETV
vector 31 Highway.node[3].appl posy ETV
vector 32 Highway.node[4].appl distance ETV
vector 33 Highway.node[4].appl relativeSpeed ETV
vector 34 Highway.node[4].appl nodeId ETV
vector 35 Highway.node[4].appl acceleration ETV
vector 36 Highway.node[4].appl controllerAcceleration ETV
vector 37 Highway.node[4].appl speed ETV
vector 38 Highway.node[4].appl posx ETV
vector 39 Highway.node[4].appl posy ETV
vector 40 Highway.node[5].appl distance ETV
vector 41 Highway.node[5].appl relativeSpeed ETV
vector 42 Highway.node[5].appl nodeId ETV
vector 43 Highway.node[5].appl acceleration ETV
vector 44 Highway.node[5].appl controllerAcceleration ETV
vector 45 Highway.node[5].appl speed ETV
vector 46 Highway.node[5].appl posx ETV
vector 47 Highway.node[5].appl posy ETV
vector 48 Highway.node[6].appl distance ETV
vector 49 Highway.node[6].appl relativeSpeed ETV
vector 50 Highway.node[6].appl nodeId ETV
vector 51 Highway.node[6].appl acceleration ETV
vector 52 Highway.node[6].appl controllerAcceleration ETV
vector 53 Highway.node[6].appl speed ETV
vector 54 Highway.node[6].appl posx ETV
vector 55 Highway.node[6].appl posy ETV
vector 56 Highway.node[7].appl distance ETV
vector 57 Highway.node[7].appl relativeSpeed ETV
vector 58 Highway.node[7].appl nodeId ETV
vector 59 Highway.node[7].appl acceleration ETV
vector 60 Highway.node[7].appl controllerAcceleration ETV
vector 61 Highway.node[7].appl speed ETV
vector 62 Highway.node[7].appl posx ETV
vector 63 Highway.node[7].appl posy ETV
vector 64 Highway.node[8].appl distance ETV
vector 65 Highway.node[8].appl relativeSpeed ETV
vector 66 Highway.node[8].appl nodeId ETV
vector 67 Highway.node[8].appl acceleration ETV
vector 68 Highway.node[8].appl controllerAcceleration ETV
vector 69 Highway.node[8].appl speed ETV
vector 70 Highway.node[8].appl posx ETV
vector 71 Highway.node[8].appl posy ETV
vector 72 Highway.node[9].appl distance ETV
vector 73 Highway.node[9].appl relativeSpeed ETV
vector 74 Highway.node[9].appl nodeId ETV
vector 75 Highway.node[9].appl acceleration ETV
vector 76 Highway.node[9].appl controllerAcceleration ETV
vector 77 Highway.node[9].appl speed ETV
vector 78 Highway.node[9].appl posx ETV
vector 79 Highway.node[9].appl posy ETV
vector 80 Highway.node[10].appl distance ETV
vector 81 Highway.node[10].appl relativeSpeed ETV
vector 82 Highway.node[10].appl nodeId ETV
vector 83 Highway.node[10].appl acceleration ETV
vector 84 Highway.node[10].appl controllerAcceleration ETV
vector 85 Highway.node[10].appl speed ETV
vector 86 Highway.node[10].appl posx ETV
vector 87 Highway.node[10].appl posy ETV
vector 88 Highway.node[11].appl distance ETV
vector 89 Highway.node[11].appl relativeSpeed ETV
vector 90 Highway.node[11].appl nodeId ETV
vector 91 Highway.node[11].appl acceleration ETV
vector 92 Highway.node[11].appl controllerAcceleration ETV
vector 93 Highway.node[11].appl speed ETV
vector 94 Highway.node[11].appl posx ETV
vector 95 Highway.node[11].appl posy ETV
vector 96 Highway.node[12].appl distance ETV
vector 97 Highway.node[12].appl relativeSpeed ETV
vector 98 Highway.node[12].appl nodeId ETV
vector 99 Highway.node[12].appl acceleration ETV
vector 100 Highway.node[12].appl controllerAcceleration ETV
vector 101 Highway.node[12].appl speed ETV
vector 102 Highway.node[12].appl posx ETV
vector 103 Highway.node[12].appl posy ETV
vector 104 Highway.node[13].appl distance ETV
vector 105 Highway.node[13].appl relativeSpeed ETV
vector 106 Highway.node[13].appl nodeId ETV
vector 107 Highway.node[13].appl acceleration ETV
vector 108 Highway.node[13].appl controllerAcceleration ETV
vector 109 Highway.node[13].appl speed ETV
vector 110 Highway.node[13].appl posx ETV
vector 111 Highway.node[13].appl posy ETV
vector 112 Highway.node[14].appl distance ETV
vector 113 Highway.node[14].appl relativeSpeed ETV
vector 114 Highway.node[14].appl nodeId ETV
vector 115 Highway.node[14].appl acceleration ETV
vector 116 Highway.node[14].appl controllerAcceleration ETV
vector 117 Highway.node[14].appl speed ETV
vector 118 Highway.node[14].appl posx ETV
vector 119 Highway.node[14].appl posy ETV
vector 120 Highway.node[15].appl distance ETV
vector 121 Highway.node[15].appl relativeSpeed ETV
vector 122 Highway.node[15].appl nodeId ETV
vector 123 Highway.node[15].appl acceleration ETV
vector 124 Highway.node[15].appl controllerAcceleration ETV
vector 125 Highway.node[15].appl speed ETV
vector 126 Highway.node[15].appl posx ETV
vector 127 Highway.node[15].appl posy ETV
vector 128 Highway.node[16].appl distance ETV
vector 129 Highway.node[16].appl relativeSpeed ETV
vector 130 Highway.node[16].appl nodeId ETV
vector 131 Highway.node[16].appl acceleration ETV
vector 132 Highway.node[16].appl controllerAcceleration ETV
vector 133 Highway.node[16].appl speed ETV
vector 134 Highway.node[16].appl posx ETV
vector 135 Highway.node[16].appl posy ETV
vector 136 Highway.node[17].appl distance ETV
vector 137 Highway.node[17].appl relativeSpeed ETV
vector 138 Highway.node[17].appl nodeId ETV
vector 139 Highway.node[17].appl acceleration ETV
vector 140 Highway.node[17].appl controllerAcceleration ETV
vector 141 Highway.node[17].appl speed ETV
vector 142 Highway.node[17].appl posx ETV
vector 143 Highway.node[17].appl posy ETV
vector 144 Highway.node[18].appl distance ETV
vector 145 Highway.node[18].appl relativeSpeed ETV
vector 146 Highway.node[18].appl nodeId ETV
vector 147 Highway.node[18].appl acceleration ETV
vector 148 Highway.node[18].appl controllerAcceleration ETV
vector 149 Highway.node[18].appl speed ETV
vector 150 Highway.node[18].appl posx ETV
vector 151 Highway.node[18].appl posy ETV
vector 152 Highway.node[19].appl distance ETV
vector 153 Highway.node[19].appl relativeSpeed ETV
vector 154 Highway.node[19].appl nodeId ETV
vector 155 Highway.node[19].appl acceleration ETV
vector 156 Highway.node[19].appl controllerAcceleration ETV
vector 157 Highway.node[19].appl speed ETV
vector 158 Highway.node[19].appl posx ETV
vector 159 Highway.node[19].appl posy ETV
vector 160 Highway.node[20].appl distance ETV
vector 161 Highway.node[20].appl relativeSpeed ETV
vector 162 Highway.node[20].appl nodeId ETV
vector 163 Highway.node[20].appl acceleration ETV
vector 164 Highway.node[20].appl controllerAcceleration ETV
vector 165 Highway.node[20].appl speed ETV
vector 166 Highway.node[20].appl posx ETV
vector 167 Highway.node[20].appl posy ETV
vector 168 Highway.node[21].appl distance ETV
vector 169 Highway.node[21].appl relativeSpeed ETV
vector 170 Highway.node[21].appl nodeId ETV
vector 171 Highway.node[21].appl acceleration ETV
vector 172 Highway.node[21].appl controllerAcceleration ETV
vector 173 Highway.node[21].appl speed ETV
vector 174 Highway.node[21].appl posx ETV
vector 175 Highway.node[21].appl posy ETV
vector 176 Highway.node[22].appl distance ETV
vector 177 Highway.node[22].appl relativeSpeed ETV
vector 178 Highway.node[22].appl nodeId ETV
vector 179 Highway.node[22].appl acceleration ETV
vector 180 Highway.node[22].appl controllerAcceleration ETV
vector 181 Highway.node[22].appl speed ETV
vector 182 Highway.node[22].appl posx ETV
vector 183 Highway.node[22].appl posy ETV
vector 184 Highway.node[23].appl distance ETV
vector 185 Highway.node[23].appl relativeSpeed ETV
vector 186 Highway.node[23].appl nodeId ETV
vector 187 Highway.node[23].appl acceleration ETV
vector 188 Highway.node[23].appl controllerAcceleration ETV
vector 189 Highway.node[23].appl speed ETV
vector 190 Highway.node[23].appl posx ETV
vector 191 Highway.node[23].appl posy ETV
vector 192 Highway.node[24].appl distance ETV
vector 193 Highway.node[24].appl relativeSpeed ETV
vector 194 Highway.node[24].appl nodeId ETV
vector 195 Highway.node[24].appl acceleration ETV
vector 196 Highway.node[24].appl controllerAcceleration ETV
vector 197 Highway.node[24].appl speed ETV
vector 198 Highway.node[24].appl posx ETV
vector 199 Highway.node[24].appl posy ETV
vector 200 Highway.node[25].appl distance ETV
vector 201 Highway.node[25].appl relativeSpeed ETV
vector 202 Highway.node[25].appl nodeId ETV
vector 203 Highway.node[25].appl acceleration ETV
vector 204 Highway.node[25].appl controllerAcceleration ETV
vector 205 Highway.node[25].appl speed ETV
vector 206 Highway.node[25].appl posx ETV
vector 207 Highway.node[25].appl posy ETV
vector 208 Highway.node[26].appl distance ETV
vector 209 Highway.node[26].appl relativeSpeed ETV
vector 210 Highway.node[26].appl nodeId ETV
vector 211 Highway.node[26].appl acceleration ETV
vector 212 Highway.node[26].appl controllerAcceleration ETV
vector 213 Highway.node[26].appl speed ETV
vector 214 Highway.node[26].appl posx ETV
vector 215 Highway.node[26].appl posy ETV
vector 216 Highway.node[27].appl distance ETV
vector 217 Highway.node[27].appl relativeSpeed ETV
vector 218 Highway.node[27].appl nodeId ETV
vector 219 Highway.node[27].appl acceleration ETV
vector 220 Highway.node[27].appl controllerAcceleration ETV
vector 221 Highway.node[27].appl speed ETV
vector 222 Highway.node[27].appl posx ETV
vector 223 Highway.node[27].appl posy ETV
vector 224 Highway.node[28].appl distance ETV
vector 225 Highway.node[28].appl relativeSpeed ETV
vector 226 Highway.node[28].appl nodeId ETV
vector 227 Highway.node[28].appl acceleration ETV
vector 228 Highway.node[28].appl controllerAcceleration ETV
vector 229 Highway.node[28].appl speed ETV
vector 230 Highway.node[28].appl posx ETV
vector 231 Highway.node[28].appl posy ETV
vector 232 Highway.node[29].appl distance ETV
vector 233 Highway.node[29].appl relativeSpeed ETV
vector 234 Highway.node[29].appl nodeId ETV
vector 235 Highway.node[29].appl acceleration ETV
vector 236 Highway.node[29].appl controllerAcceleration ETV
vector 237 Highway.node[29].appl speed ETV
vector 238 Highway.node[29].appl posx ETV
vector 239 Highway.node[29].appl posy ETV
vector 240 Highway.node[30].appl distance ETV
vector 241 Highway.node[30].appl relativeSpeed ETV
vector 242 Highway.node[30].appl nodeId ETV
vector 243 Highway.node[30].appl acceleration ETV
vector 244 Highway.node[30].appl controllerAcceleration ETV
vector 245 Highway.node[30].appl speed ETV
vector 246 Highway.node[30].appl posx ETV
vector 247 Highway.node[30].appl posy ETV
vector 248 Highway.node[0].prot nodeId ETV
vector 249 Highway.node[0].prot busyTime ETV
vector 250 Highway.node[0].prot collisions ETV
vector 251 Highway.node[1].prot nodeId ETV
vector 252 Highway.node[1].prot busyTime ETV
vector 253 Highway.node[1].prot collisions ETV
vector 254 Highway.node[2].prot nodeId ETV
vector 255 Highway.node[2].prot busyTime ETV
vector 256 Highway.node[2].prot collisions ETV
vector 257 Highway.node[3].prot nodeId ETV
vector 258 Highway.node[3].prot busyTime ETV
vector 259 Highway.node[3].prot collisions ETV
vector 260 Highway.node[4].prot nodeId ETV
vector 261 Highway.node[4].prot busyTime ETV
vector 262 Highway.node[4].prot collisions ETV
vector 263 Highway.node[5].prot nodeId ETV
vector 264 Highway.node[5].prot busyTime ETV
vector 265 Highway.node[5].prot collisions ETV
vector 266 Highway.node[6].prot nodeId ETV
vector 267 Highway.node[6].prot busyTime ETV
vector 268 Highway.node[6].prot collisions ETV
vector 269 Highway.node[7].prot nodeId ETV
vector 270 Highway.node[7].prot busyTime ETV
vector 271 Highway.node[7].prot collisions ETV
vector 272 Highway.node[8].prot nodeId ETV
vector 273 Highway.node[8].prot busyTime ETV
vector 274 Highway.node[8].prot collisions ETV
vector 275 Highway.node[9].prot nodeId ETV
vector 276 Highway.node[9].prot busyTime ETV
vector 277 Highway.node[9].prot collisions ETV
vector 278 Highway.node[10].prot nodeId ETV
vector 279 Highway.node[10].prot busyTime ETV
vector 280 Highway.node[10].prot collisions ETV
vector 281 Highway.node[11].prot nodeId ETV
vector 282 Highway.node[11].prot busyTime ETV
vector 283 Highway.node[11].prot collisions ETV
vector 284 Highway.node[12].prot nodeId ETV
vector 285 Highway.node[12].prot busyTime ETV
vector 286 Highway.node[12].prot collisions ETV
vector 287 Highway.node[13].prot nodeId ETV
vector 288 Highway.node[13].prot busyTime ETV
vector 289 Highway.node[13].prot collisions ETV
vector 290 Highway.node[14].prot nodeId ETV
vector 291 Highway.node[14].prot busyTime ETV
vector 292 Highway.node[14].prot collisions ETV
vector 293 Highway.node[15].prot nodeId ETV
vector 294 Highway.node[15].prot busyTime ETV
vector 295 Highway.node[15].prot collisions ETV
vector 296 Highway.node[16].prot nodeId ETV
vector 297 Highway.node[16].prot busyTime ETV
vector 298 Highway.node[16].prot collisions ETV
vector 299 Highway.node[17].prot nodeId ETV
vector 300 Highway.node[17].prot busyTime ETV
vector 301 Highway.node[17].prot collisions ETV
vector 302 Highway.node[18].prot nodeId ETV
vector 303 Highway.node[18].prot busyTime ETV
vector 304 Highway.node[18].prot collisions ETV
vector 305 Highway.node[19].prot nodeId ETV
vector 306 Highway.node[19].prot busyTime ETV
vector 307 Highway.node[19].prot collisions ETV
vector 308 Highway.node[20].prot nodeId ETV
vector 309 Highway.node[20].prot busyTime ETV
vector 310 Highway.node[20].prot collisions ETV
vector 311 Highway.node[21].prot nodeId ETV
vector 312 Highway.node[21].prot busyTime ETV
vector 313 Highway.node[21].prot collisions ETV
vector 314 Highway.node[22].prot nodeId ETV
vector 315 Highway.node[22].prot busyTime ETV
vector 316 Highway.node[22].prot collisions ETV
vector 317 Highway.node[23].prot nodeId ETV
vector 318 Highway.node[23].prot busyTime ETV
vector 319 Highway.node[23].prot collisions ETV
vector 320 Highway.node[24].prot nodeId ETV
vector 321 Highway.node[24].prot busyTime ETV
vector 322 Highway.node[24].prot collisions ETV
vector 323 Highway.node[25].prot nodeId ETV
vector 324 Highway.node[25].prot busyTime ETV
vector 325 Highway.node[25].prot collisions ETV
vector 326 Highway.node[26].prot nodeId ETV
vector 327 Highway.node[26].prot busyTime ETV
vector 328 Highway.node[26].prot collisions ETV
vector 329 Highway.node[27].prot nodeId ETV
vector 330 Highway.node[27].prot busyTime ETV
vector 331 Highway.node[27].prot collisions ETV
vector 332 Highway.node[28].prot nodeId ETV
vector 333 Highway.node[28].prot busyTime ETV
vector 334 Highway.node[28].prot collisions ETV
vector 335 Highway.node[29].prot nodeId ETV
vector 336 Highway.node[29].prot busyTime ETV
vector 337 Highway.node[29].prot collisions ETV
vector 338 Highway.node[30].prot nodeId ETV
vector 339 Highway.node[30].prot busyTime ETV
vector 340 Highway.node[30].prot collisions ETV
0	13	0.12	-1
0	54	0.22	-1
0	95	0.32	-1
0	136	0.42	-1
0	177	0.52	-1
0	218	0.62	-1
0	259	0.72	-1
0	300	0.82	-1
0	341	0.92	-1
0	413	1.02	-1
0	454	1.12	-1
0	495	1.22	-1
0	536	1.32	-1
0	577	1.42	-1
0	618	1.52	-1
0	659	1.62	-1
0	700	1.72	-1
0	741	1.82	-1
0	782	1.92	-1
0	854	2.02	-1
0	895	2.12	-1
0	936	2.22	-1
1	13	0.12	0
1	54	0.22	0
1	95	0.32	0
1	136	0.42	0
1	177	0.52	0
1	218	0.62	0
1	259	0.72	0
1	300	0.82	0
1	341	0.92	0
1	413	1.02	0
1	454	1.12	0
1	495	1.22	0
1	536	1.32	0
1	577	1.42	0
1	618	1.52	0
1	659	1.62	0
1	700	1.72	0
1	741	1.82	0
1	782	1.92	0
1	854	2.02	0
1	895	2.12	0
1	936	2.22	0
2	13	0.12	0
2	54	0.22	0
2	95	0.32	0
2	136	0.42	0
2	177	0.52	0
2	218	0.62	0
2	259	0.72	0
2	300	0.82	0
2	341	0.92	0
2	413	1.02	0
2	454	1.12	0
2	495	1.22	0
2	536	1.32	0
2	577	1.42	0
2	618	1.52	0
2	659	1.62	0
2	700	1.72	0
2	741	1.82	0
2	782	1.92	0
2	854	2.02	0
2	895	2.12	0
2	936	2.22	0
3	13	0.12	0
3	54	0.22	0
3	95	0.32	0
3	136	0.42	0
3	177	0.52	0
3	218	0.62	0
3	259	0.72	0
3	300	0.82	0
3	341	0.92	0
3	413	1.02	0
3	454	1.12	0
3	495	1.22	0
3	536	1.32	0
3	577	1.42	0
3	618	1.52	0
3	659	1.62	0
3	700	1.72	0
3	741	1.82	0
3	782	1.92	0
3	854	2.02	0
3	895	2.12	0
3	936	2.22	0
4	13	0.12	0
4	54	0.22	0
4	95	0.32	0
4	136	0.42	0
4	177	0.52	0
4	218	0.62	0
4	259	0.72	0
4	300	0.82	0
4	341	0.92	0
4	413	1.02	0
4	454	1.12	0
4	495	1.22	0
4	536	1.32	0
4	577	1.42	0
4	618	1.52	0
4	659	1.62	0
4	700	1.72	0
4	741	1.82	0
4	782	1.92	0
4	854	2.02	0
4	895	2.12	0
4	936	2.22	0
5	13	0.12	32.14
5	54	0.22	32.14
5	95	0.32	32.14
5	136	0.42	32.14
5	177	0.52	32.14
5	218	0.62	32.14
5	259	0.72	32.14
5	300	0.82	32.14
5	341	0.92	32.14
5	413	1.02	32.14
5	454	1.12	32.14
5	495	1.22	32.14
5	536	1.32	32.14
5	577	1.42	32.14
5	618	1.52	32.14
5	659	1.62	32.14
5	700	1.72	32.14
5	741	1.82	32.14
5	782	1.92	32.14
5	854	2.02	32.14
5	895	2.12	32.14
5	936	2.22	32.14
6	13	0.12	28.385
6	54	0.22	27.2046
6	95	0.32	26.0242
6	136	0.42	24.8438
6	177	0.52	23.6634
6	218	0.62	22.483
6	259	0.72	21.3026
6	300	0.82	20.1222
6	341	0.92	18.9418
6	413	1.02	17.7614
6	454	1.12	16.9084
6	495	1.22	16.1878
6	536	1.32	15.4671
6	577	1.42	14.7464
6	618	1.52	14.0258
6	659	1.62	13.3051
6	700	1.72	12.5844
6	741	1.82	11.8637
6	782	1.92	11.1431
6	854	2.02	10.4224
6	895	2.12	10.1564
6	936	2.22	9.9146
7	13	0.12	114.208
7	54	0.22	117.058
7	95	0.32	119.908
7	136	0.42	122.759
7	177	0.52	125.609
7	218	0.62	128.459
7	259	0.72	131.309
7	300	0.82	134.16
7	341	0.92	137.01
7	413	1.02	139.86
7	454	1.12	142.817
7	495	1.22	145.817
7	536	1.32	148.816
7	577	1.42	151.816
7	618	1.52	154.816
7	659	1.62	157.815
7	700	1.72	160.815
7	741	1.82	163.815
7	782	1.92	166.814
7	854	2.02	169.814
7	895	2.12	172.886
7	936	2.22	175.961
8	14	0.12	18.07
8	55	0.22	18.07
8	96	0.32	18.07
8	137	0.42	18.07
8	178	0.52	18.07
8	219	0.62	18.07
8	260	0.72	18.07
8	301	0.82	18.07
8	342	0.92	18.07
8	414	1.02	18.07
8	455	1.12	18.07
8	496	1.22	18.07
8	537	1.32	18.07
8	578	1.42	18.07
8	619	1.52	18.07
8	660	1.62	18.07
8	701	1.72	18.07
8	742	1.82	18.07
8	783	1.92	18.07
8	855	2.02	18.07
8	896	2.12	18.07
8	937	2.22	18.07
9	14	0.12	0
9	55	0.22	0
9	96	0.32	0
9	137	0.42	0
9	178	0.52	0
9	219	0.62	0
9	260	0.72	0
9	301	0.82	0
9	342	0.92	0
9	414	1.02	0
9	455	1.12	0
9	496	1.22	0
9	537	1.32	0
9	578	1.42	0
9	619	1.52	0
9	660	1.62	0
9	701	1.72	0
9	742	1.82	0
9	783	1.92	0
9	855	2.02	0
9	896	2.12	0
9	937	2.22	0
10	14	0.12	1
10	55	0.22	1
10	96	0.32	1
10	137	0.42	1
10	178	0.52	1
10	219	0.62	1
10	260	0.72	1
10	301	0.82	1
10	342	0.92	1
10	414	1.02	1
10	455	1.12	1
10	496	1.22	1
10	537	1.32	1
10	578	1.42	1
10	619	1.52	1
10	660	1.62	1
10	701	1.72	1
10	742	1.82	1
10	783	1.92	1
10	855	2.02	1
10	896	2.12	1
10	937	2.22	1
11	14	0.12	0
11	55	0.22	0
11	96	0.32	0
11	137	0.42	0
11	178	0.52	0
11	219	0.62	0
11	260	0.72	0
11	301	0.82	0
11	342	0.92	0
11	414	1.02	0
11	455	1.12	0
11	496	1.22	0
11	537	1.32	0
11	578	1.42	0
11	619	1.52	0
11	660	1.62	0
11	701	1.72	0
11	742	1.82	0
11	783	1.92	0
11	855	2.02	0
11	896	2.12	0
11	937	2.22	0
12	14	0.12	0
12	55	0.22	0
12	96	0.32	0
12	137	0.42	0
12	178	0.52	0
12	219	0.62	0
12	260	0.72	0
12	301	0.82	0
12	342	0.92	0
12	414	1.02	0
12	455	1.12	0
12	496	1.22	0
12	537	1.32	0
12	578	1.42	0
12	619	1.52	0
12	660	1.62	0
12	701	1.72	0
12	742	1.82	0
12	783	1.92	0
12	855	2.02	0
12	896	2.12	0
12	937	2.22	0
13	14	0.12	32.14
13	55	0.22	32.14
13	96	0.32	32.14
13	137	0.42	32.14
13	178	0.52	32.14
13	219	0.62	32.14
13	260	0.72	32.14
13	301	0.82	32.14
13	342	0.92	32.14
13	414	1.02	32.14
13	455	1.12	32.14
13	496	1.22	32.14
13	537	1.32	32.14
13	578	1.42	32.14
13	619	1.52	32.14
13	660	1.62	32.14
13	701	1.72	32.14
13	742	1.82	32.14
13	783	1.92	32.14
13	855	2.02	32.14
13	896	2.12	32.14
13	937	2.22	32.14
14	14	0.12	39.2479
14	55	0.22	37.6359
14	96	0.32	36.0239
14	137	0.42	34.4118
14	178	0.52	32.7998
14	219	0.62	31.1878
14	260	0.72	29.5757
14	301	0.82	28.2278
14	342	0.92	27.0474
14	414	1.02	25.867
14	455	1.12	24.6866
14	496	1.22	23.5062
14	537	1.32	22.3258
14	578	1.42	21.1454
14	619	1.52	19.965
14	660	1.62	18.7846
14	701	1.72	17.6042
14	742	1.82	16.8125
14	783	1.92	16.0918
14	855	2.02	15.3711
14	896	2.12	14.6505
14	937	2.22	13.9298
15	14	0.12	96.0402
15	55	0.22	98.6705
15	96	0.32	101.301
15	137	0.42	103.931
15	178	0.52	106.562
15	219	0.62	109.192
15	260	0.72	111.822
15	301	0.82	114.587
15	342	0.92	117.438
15	414	1.02	120.288
15	455	1.12	123.138
15	496	1.22	125.988
15	537	1.32	128.839
15	578	1.42	131.689
15	619	1.52	134.539
15	660	1.62	137.389
15	701	1.72	140.24
15	742	1.82	143.216
15	783	1.92	146.216
15	855	2.02	149.216
15	896	2.12	152.215
15	937	2.22	155.215
16	15	0.12	-1
16	56	0.22	-1
16	97	0.32	-1
16	138	0.42	-1
16	179	0.52	-1
16	220	0.62	-1
16	261	0.72	-1
16	302	0.82	-1
16	343	0.92	-1
16	415	1.02	-1
16	456	1.12	-1
16	497	1.22	-1
16	538	1.32	-1
16	579	1.42	-1
16	620	1.52	-1
16	661	1.62	-1
16	702	1.72	-1
16	743	1.82	-1
16	784	1.92	-1
16	856	2.02	-1
16	897	2.12	-1
16	938	2.22	-1
17	15	0.12	0
17	56	0.22	0
17	97	0.32	0
17	138	0.42	0
17	179	0.52	0
17	220	0.62	0
17	261	0.72	0
17	302	0.82	0
17	343	0.92	0
17	415	1.02	0
17	456	1.12	0
17	497	1.22	0
17	538	1.32	0
17	579	1.42	0
17	620	1.52	0
17	661	1.62	0
17	702	1.72	0
17	743	1.82	0
17	784	1.92	0
17	856	2.02	0
17	897	2.12	0
17	938	2.22	0
18	15	0.12	10
18	56	0.22	10
18	97	0.32	10
18	138	0.42	10
18	179	0.52	10
18	220	0.62	10
18	261	0.72	10
18	302	0.82	10
18	343	0.92	10
18	415	1.02	10
18	456	1.12	10
18	497	1.22	10
18	538	1.32	10
18	579	1.42	10
18	620	1.52	10
18	661	1.62	10
18	702	1.72	10
18	743	1.82	10
18	784	1.92	10
18	856	2.02	10
18	897	2.12	10
18	938	2.22	10
19	15	0.12	0
19	56	0.22	0
19	97	0.32	0
19	138	0.42	0
19	179	0.52	0
19	220	0.62	0
19	261	0.72	0
19	302	0.82	0
19	343	0.92	0
19	415	1.02	0
19	456	1.12	0
19	497	1.22	0
19	538	1.32	0
19	579	1.42	0
19	620	1.52	0
19	661	1.62	0
19	702	1.72	0
19	743	1.82	0
19	784	1.92	0
19	856	2.02	0
19	897	2.12	0
19	938	2.22	0
20	15	0.12	0
20	56	0.22	0
20	97	0.32	0
20	138	0.42	0
20	179	0.52	0
20	220	0.62	0
20	261	0.72	0
20	302	0.82	0
20	343	0.92	0
20	415	1.02	0
20	456	1.12	0
20	497	1.22	0
20	538	1.32	0
20	579	1.42	0
20	620	1.52	0
20	661	1.62	0
20	702	1.72	0
20	743	1.82	0
20	784	1.92	0
20	856	2.02	0
20	897	2.12	0
20	938	2.22	0
21	15	0.12	32.75
21	56	0.22	32.75
21	97	0.32	32.75
21	138	0.42	32.75
21	179	0.52	32.75
21	220	0.62	32.75
21	261	0.72	32.75
21	302	0.82	32.75
21	343	0.92	32.75
21	415	1.02	32.75
21	456	1.12	32.75
21	497	1.22	32.75
21	538	1.32	32.75
21	579	1.42	32.75
21	620	1.52	32.75
21	661	1.62	32.75
21	702	1.72	32.75
21	743	1.82	32.75
21	784	1.92	32.75
21	856	2.02	32.75
21	897	2.12	32.75
21	938	2.22	32.75
22	15	0.12	11.3702
22	56	0.22	10.6236
22	97	0.32	9.87693
22	138	0.42	9.13031
22	179	0.52	8.38368
22	220	0.62	7.63705
22	261	0.72	7.10648
22	302	0.82	6.85598
22	343	0.92	6.60547
22	415	1.02	6.35497
22	456	1.12	6.10446
22	497	1.22	5.85395
22	538	1.32	5.60345
22	579	1.42	5.35294
22	620	1.52	5.10243
22	661	1.62	4.85193
22	702	1.72	5.0282
22	743	1.82	5.27871
22	784	1.92	5.52921
22	856	2.02	5.77972
22	897	2.12	6.03023
22	938	2.22	6.28073
23	15	0.12	152.17
23	56	0.22	155.278
23	97	0.32	158.386
23	138	0.42	161.494
23	179	0.52	164.601
23	220	0.62	167.709
23	261	0.72	170.851
23	302	0.82	174.037
23	343	0.92	177.224
23	415	1.02	180.41
23	456	1.12	183.596
23	497	1.22	186.783
23	538	1.32	189.969
23	579	1.42	193.155
23	620	1.52	196.342
23	661	1.62	199.528
23	702	1.72	202.714
23	743	1.82	205.901
23	784	1.92	209.087
23	856	2.02	212.273
23	897	2.12	215.459
23	938	2.22	218.646
24	16	0.12	18.38
24	57	0.22	18.38
24	98	0.32	18.38
24	139	0.42	18.38
24	180	0.52	18.38
24	221	0.62	18.38
24	262	0.72	18.38
24	303	0.82	18.38
24	344	0.92	18.3799
24	416	1.02	18.3799
24	457	1.12	18.3799
24	498	1.22	18.3799
24	539	1.32	18.3798
24	580	1.42	18.3798
24	621	1.52	18.3797
24	662	1.62	18.3797
24	703	1.72	18.3796
24	744	1.82	18.3795
24	785	1.92	18.3795
24	857	2.02	18.3794
24	898	2.12	18.3793
24	939	2.22	18.3792
25	16	0.12	-5.9747e-07
25	57	0.22	-4.36134e-06
25	98	0.32	-1.33559e-05
25	139	0.42	-2.87146e-05
25	180	0.52	-5.0881e-05
25	221	0.62	-7.97978e-05
25	262	0.72	-0.000115055
25	303	0.82	-0.000156007
25	344	0.92	-0.000201858
25	416	1.02	-0.000251733
25	457	1.12	-0.000304726
25	498	1.22	-0.000359939
25	539	1.32	-0.000416511
25	580	1.42	-0.000473632
25	621	1.52	-0.000530556
25	662	1.62	-0.000586614
25	703	1.72	-0.000641211
25	744	1.82	-0.000693828
25	785	1.92	-0.000744025
25	857	2.02	-0.000791431
25	898	2.12	-0.000835746
25	939	2.22	-0.000876734
26	16	0.12	11
26	57	0.22	11
26	98	0.32	11
26	139	0.42	11
26	180	0.52	11
26	221	0.62	11
26	262	0.72	11
26	303	0.82	11
26	344	0.92	11
26	416	1.02	11
26	457	1.12	11
26	498	1.22	11
26	539	1.32	11
26	580	1.42	11
26	621	1.52	11
26	662	1.62	11
26	703	1.72	11
26	744	1.82	11
26	785	1.92	11
26	857	2.02	11
26	898	2.12	11
26	939	2.22	11
27	16	0.12	1.58603e-05
27	57	0.22	5.85891e-05
27	98	0.32	0.000117325
27	139	0.42	0.000183938
27	180	0.52	0.000252455
27	221	0.62	0.000318596
27	262	0.72	0.000379408
27	303	0.82	0.000432957
27	344	0.92	0.000478098
27	416	1.02	0.000514277
27	457	1.12	0.000541386
27	498	1.22	0.000559637
27	539	1.32	0.000569475
27	580	1.42	0.000571495
27	621	1.52	0.000566395
27	662	1.62	0.000554924
27	703	1.72	0.000537853
27	744	1.82	0.00051595
27	785	1.92	0.00048996
27	857	2.02	0.000460595
27	898	2.12	0.000428522
27	939	2.22	0.000394359
28	16	0.12	0.000165937
28	57	0.22	0.000316035
28	98	0.32	0.000434506
28	139	0.42	0.000525481
28	180	0.52	0.000592651
28	221	0.62	0.000639305
28	262	0.72	0.000668376
28	303	0.82	0.000682469
28	344	0.92	0.000683897
28	416	1.02	0.000674711
28	457	1.12	0.000656721
28	498	1.22	0.000631527
28	539	1.32	0.000600534
28	580	1.42	0.000564975
28	621	1.52	0.000525927
28	662	1.62	0.000484331
28	703	1.72	0.000440999
28	744	1.82	0.000396637
28	785	1.92	0.000351847
28	857	2.02	0.000307144
28	898	2.12	0.000262964
28	939	2.22	0.000219674
29	16	0.12	32.75
29	57	0.22	32.75
29	98	0.32	32.75
29	139	0.42	32.75
29	180	0.52	32.7501
29	221	0.62	32.7501
29	262	0.72	32.7501
29	303	0.82	32.7502
29	344	0.92	32.7502
29	416	1.02	32.7503
29	457	1.12	32.7503
29	498	1.22	32.7504
29	539	1.32	32.7504
29	580	1.42	32.7505
29	621	1.52	32.7505
29	662	1.62	32.7506
29	703	1.72	32.7506
29	744	1.82	32.7507
29	785	1.92	32.7507
29	857	2.02	32.7508
29	898	2.12	32.7508
29	939	2.22	32.7509
30	16	0.12	17.8141
30	57	0.22	16.5911
30	98	0.32	15.3682
30	139	0.42	14.2324
30	180	0.52	13.4858
30	221	0.62	12.7392
30	262	0.72	11.9926
30	303	0.82	11.2459
30	344	0.92	10.4993
30	416	1.02	9.75267
30	457	1.12	9.00603
30	498	1.22	8.2594
30	539	1.32	7.51276
30	580	1.42	7.06478
30	621	1.52	6.81427
30	662	1.62	6.56376
30	703	1.72	6.31325
30	744	1.82	6.06274
30	785	1.92	5.81223
30	857	2.02	5.56171
30	898	2.12	5.3112
30	939	2.22	5.06069
31	16	0.12	131.37
31	57	0.22	134.323
31	98	0.32	137.276
31	139	0.42	140.257
31	180	0.52	143.365
31	221	0.62	146.472
31	262	0.72	149.58
31	303	0.82	152.688
31	344	0.92	155.795
31	416	1.02	158.903
31	457	1.12	162.011
31	498	1.22	165.119
31	539	1.32	168.226
31	580	1.42	171.381
31	621	1.52	174.568
31	662	1.62	177.754
31	703	1.72	180.941
31	744	1.82	184.127
31	785	1.92	187.313
31	857	2.02	190.5
31	898	2.12	193.686
31	939	2.22	196.873
32	17	0.12	18.37
32	58	0.22	18.37
32	99	0.32	18.37
32	140	0.42	18.37
32	181	0.52	18.37
32	222	0.62	18.37
32	263	0.72	18.37
32	304	0.82	18.3701
32	345	0.92	18.3701
32	417	1.02	18.3701
32	458	1.12	18.3702
32	499	1.22	18.3702
32	540	1.32	18.3703
32	581	1.42	18.3703
32	622	1.52	18.3704
32	663	1.62	18.3705
32	704	1.72	18.3706
32	745	1.82	18.3707
32	786	1.92	18.3708
32	858	2.02	18.3709
32	899	2.12	18.371
32	940	2.22	18.3711
33	17	0.12	1.17114e-06
33	58	0.22	8.33948e-06
33	99	0.32	2.49224e-05
33	140	0.42	5.23112e-05
33	181	0.52	9.0531e-05
33	222	0.62	0.000138727
33	263	0.72	0.000195518
33	304	0.82	0.000259246
33	345	0.92	0.00032816
33	417	1.02	0.000400527
33	458	1.12	0.000474716
33	499	1.22	0.000549247
33	540	1.32	0.000622812
33	581	1.42	0.000694287
33	622	1.52	0.000762734
33	663	1.62	0.000827389
33	704	1.72	0.000887652
33	745	1.82	0.000943072
33	786	1.92	0.000993333
33	858	2.02	0.00103823
33	899	2.12	0.00107767
33	940	2.22	0.00111163
34	17	0.12	12
34	58	0.22	12
34	99	0.32	12
34	140	0.42	12
34	181	0.52	12
34	222	0.62	12
34	263	0.72	12
34	304	0.82	12
34	345	0.92	12
34	417	1.02	12
34	458	1.12	12
34	499	1.22	12
34	540	1.32	12
34	581	1.42	12
34	622	1.52	12
34	663	1.62	12
34	704	1.72	12
34	745	1.82	12
34	786	1.92	12
34	858	2.02	12
34	899	2.12	12
34	940	2.22	12
35	17	0.12	-1.50129e-05
35	58	0.22	-5.16611e-05
35	99	0.32	-9.60918e-05
35	140	0.42	-0.000139474
35	181	0.52	-0.000176558
35	222	0.62	-0.000204604
35	263	0.72	-0.000222577
35	304	0.82	-0.00023057
35	345	0.92	-0.000229374
35	417	1.02	-0.000220179
35	458	1.12	-0.000204361
35	499	1.22	-0.000183338
35	540	1.32	-0.000158478
35	581	1.42	-0.000131039
35	622	1.52	-0.000102136
35	663	1.62	-7.27288e-05
35	704	1.72	-4.36202e-05
35	745	1.82	-1.54606e-05
35	786	1.92	1.12398e-05
35	858	2.02	3.60971e-05
35	899	2.12	5.88384e-05
35	940	2.22	7.92863e-05
36	17	0.12	-0.000152827
36	58	0.22	-0.000261601
36	99	0.32	-0.000321563
36	140	0.42	-0.00034541
36	181	0.52	-0.000343123
36	222	0.62	-0.000322498
36	263	0.72	-0.000289579
36	304	0.82	-0.000249009
36	345	0.92	-0.000204313
36	417	1.02	-0.000158131
36	458	1.12	-0.000112397
36	499	1.22	-6.8499e-05
36	540	1.32	-2.73892e-05
36	581	1.42	1.03124e-05
36	622	1.52	4.42432e-05
36	663	1.62	7.42353e-05
36	704	1.72	0.000100267
36	745	1.82	0.000122423
36	786	1.92	0.000140866
36	858	2.02	0.000155808
36	899	2.12	0.000167497
36	940	2.22	0.0001762
37	17	0.12	32.75
37	58	0.22	32.75
37	99	0.32	32.75
37	140	0.42	32.75
37	181	0.52	32.75
37	222	0.62	32.7499
37	263	0.72	32.7499
37	304	0.82	32.7499
37	345	0.92	32.7499
37	417	1.02	32.7499
37	458	1.12	32.7498
37	499	1.22	32.7498
37	540	1.32	32.7498
37	581	1.42	32.7498
37	622	1.52	32.7498
37	663	1.62	32.7498
37	704	1.72	32.7498
37	745	1.82	32.7498
37	786	1.92	32.7498
37	858	2.02	32.7498
37	899	2.12	32.7498
37	940	2.22	32.7498
38	17	0.12	26.1955
38	58	0.22	24.9443
38	99	0.32	23.7214
38	140	0.42	22.4985
38	181	0.52	21.2756
38	222	0.62	20.0527
38	263	0.72	18.8297
38	304	0.82	17.6068
38	345	0.92	16.3839
38	417	1.02	15.161
38	458	1.12	14.1059
38	499	1.22	13.3593
38	540	1.32	12.6127
38	581	1.42	11.8661
38	622	1.52	11.1194
38	663	1.62	10.3728
38	704	1.72	9.6262
38	745	1.82	8.87958
38	786	1.92	8.13296
38	858	2.02	7.38634
38	899	2.12	7.02237
38	940	2.22	6.77186
39	17	0.12	111.214
39	58	0.22	114.152
39	99	0.32	117.105
39	140	0.42	120.058
39	181	0.52	123.011
39	222	0.62	125.964
39	263	0.72	128.917
39	304	0.82	131.87
39	345	0.92	134.823
39	417	1.02	137.776
39	458	1.12	140.783
39	499	1.22	143.891
39	540	1.32	146.999
39	581	1.42	150.106
39	622	1.52	153.214
39	663	1.62	156.322
39	704	1.72	159.43
39	745	1.82	162.537
39	786	1.92	165.645
39	858	2.02	168.753
39	899	2.12	171.921
39	940	2.22	175.107
40	18	0.12	18.38
40	59	0.22	18.38
40	100	0.32	18.38
40	141	0.42	18.38
40	182	0.52	18.38
40	223	0.62	18.38
40	264	0.72	18.38
40	305	0.82	18.3799
40	346	0.92	18.3799
40	418	1.02	18.3799
40	459	1.12	18.3799
40	500	1.22	18.3798
40	541	1.32	18.3798
40	582	1.42	18.3797
40	623	1.52	18.3797
40	664	1.62	18.3796
40	705	1.72	18.3795
40	746	1.82	18.3794
40	787	1.92	18.3794
40	859	2.02	18.3793
40	900	2.12	18.3792
40	941	2.22	18.3791
41	18	0.12	-1.148e-06
41	59	0.22	-7.98209e-06
41	100	0.32	-2.33219e-05
41	141	0.42	-4.79232e-05
41	182	0.52	-8.13075e-05
41	223	0.62	-0.000122321
41	264	0.72	-0.000169501
41	305	0.82	-0.000221308
41	346	0.92	-0.000276266
41	418	1.02	-0.000333038
41	459	1.12	-0.000390464
41	500	1.22	-0.000447564
41	541	1.32	-0.00050354
41	582	1.42	-0.000557753
41	623	1.52	-0.000609706
41	664	1.62	-0.000659026
41	705	1.72	-0.000705441
41	746	1.82	-0.000748761
41	787	1.92	-0.000788864
41	859	2.02	-0.000825684
41	900	2.12	-0.000859194
41	941	2.22	-0.000889404
42	18	0.12	13
42	59	0.22	13
42	100	0.32	13
42	141	0.42	13
42	182	0.52	13
42	223	0.62	13
42	264	0.72	13
42	305	0.82	13
42	346	0.92	13
42	418	1.02	13
42	459	1.12	13
42	500	1.22	13
42	541	1.32	13
42	582	1.42	13
42	623	1.52	13
42	664	1.62	13
42	705	1.72	13
42	746	1.82	13
42	787	1.92	13
42	859	2.02	13
42	900	2.12	13
42	941	2.22	13
43	18	0.12	1.50428e-05
43	59	0.22	5.22494e-05
43	100	0.32	9.89272e-05
43	141	0.42	0.00014753
43	182	0.52	0.000193857
43	223	0.62	0.000235811
43	264	0.72	0.000272568
43	305	0.82	0.000304024
43	346	0.92	0.000330447
43	418	1.02	0.000352256
43	459	1.12	0.000369901
43	500	1.22	0.000383793
43	541	1.32	0.000394279
43	582	1.42	0.000401637
43	623	1.52	0.000406082
43	664	1.62	0.000407777
43	705	1.72	0.000406853
43	746	1.82	0.000403418
43	787	1.92	0.000397572
43	859	2.02	0.000389415
43	900	2.12	0.000379055
43	941	2.22	0.000366611
44	18	0.12	0.000153441
44	59	0.22	0.000267692
44	100	0.32	0.000341318
44	141	0.42	0.000387899
44	182	0.52	0.000416772
44	223	0.62	0.000434213
44	264	0.72	0.000444321
44	305	0.82	0.000449674
44	346	0.92	0.000451808
44	418	1.02	0.000451569
44	459	1.12	0.000449364
44	500	1.22	0.000445331
44	541	1.32	0.00043947
44	582	1.42	0.000431717
44	623	1.52	0.000421998
44	664	1.62	0.000410263
44	705	1.72	0.000396498
44	746	1.82	0.000380737
44	787	1.92	0.000363057
44	859	2.02	0.000343581
44	900	2.12	0.000322463
44	941	2.22	0.000299889
45	18	0.12	32.75
45	59	0.22	32.75
45	100	0.32	32.75
45	141	0.42	32.75
45	182	0.52	32.75
45	223	0.62	32.7501
45	264	0.72	32.7501
45	305	0.82	32.7501
45	346	0.92	32.7501
45	418	1.02	32.7502
45	459	1.12	32.7502
45	500	1.22	32.7503
45	541	1.32	32.7503
45	582	1.42	32.7503
45	623	1.52	32.7504
45	664	1.62	32.7504
45	705	1.72	32.7505
45	746	1.82	32.7505
45	787	1.92	32.7505
45	859	2.02	32.7506
45	900	2.12	32.7506
45	941	2.22	32.7507
46	18	0.12	37.6082
46	59	0.22	35.9381
46	100	0.32	34.268
46	141	0.42	32.5979
46	182	0.52	30.9278
46	223	0.62	29.2577
46	264	0.72	27.5876
46	305	0.82	25.9638
46	346	0.92	24.7408
46	418	1.02	23.5179
46	459	1.12	22.295
46	500	1.22	21.072
46	541	1.32	19.8491
46	582	1.42	18.6262
46	623	1.52	17.4032
46	664	1.62	16.1803
46	705	1.72	14.9573
46	746	1.82	13.9816
46	787	1.92	13.235
46	859	2.02	12.4883
46	900	2.12	11.7417
46	941	2.22	10.995
47	18	0.12	92.5917
47	59	0.22	95.3168
47	100	0.32	98.0419
47	141	0.42	100.767
47	182	0.52	103.492
47	223	0.62	106.217
47	264	0.72	108.942
47	305	0.82	111.691
47	346	0.92	114.644
47	418	1.02	117.597
47	459	1.12	120.55
47	500	1.22	123.503
47	541	1.32	126.456
47	582	1.42	129.409
47	623	1.52	132.362
47	664	1.62	135.315
47	705	1.72	138.268
47	746	1.82	141.301
47	787	1.92	144.409
47	859	2.02	147.516
47	900	2.12	150.624
47	941	2.22	153.732
48	19	0.12	18.37
48	60	0.22	18.37
48	101	0.32	18.37
48	142	0.42	18.37
48	183	0.52	18.37
48	224	0.62	18.37
48	265	0.72	18.37
48	306	0.82	18.3701
48	347	0.92	18.3701
48	419	1.02	18.3701
48	460	1.12	18.3702
48	501	1.22	18.3702
48	542	1.32	18.3703
48	583	1.42	18.3703
48	624	1.52	18.3704
48	665	1.62	18.3705
48	706	1.72	18.3705
48	747	1.82	18.3706
48	788	1.92	18.3707
48	860	2.02	18.3708
48	901	2.12	18.3709
48	942	2.22	18.371
49	19	0.12	1.14866e-06
49	60	0.22	8.00652e-06
49	101	0.32	2.34946e-05
49	142	0.42	4.85676e-05
49	183	0.52	8.30166e-05
49	224	0.62	0.000125984
49	265	0.72	0.000176284
49	306	0.82	0.000232602
49	347	0.92	0.000293611
49	419	1.02	0.000358032
49	460	1.12	0.000424673
49	501	1.22	0.000492441
49	542	1.32	0.000560349
49	583	1.42	0.000627515
49	624	1.52	0.000693156
49	665	1.62	0.000756589
49	706	1.72	0.000817222
49	747	1.82	0.000874548
49	788	1.92	0.000928147
49	860	2.02	0.000977674
49	901	2.12	0.00102286
49	942	2.22	0.0010635
50	19	0.12	14
50	60	0.22	14
50	101	0.32	14
50	142	0.42	14
50	183	0.52	14
50	224	0.62	14
50	265	0.72	14
50	306	0.82	14
50	347	0.92	14
50	419	1.02	14
50	460	1.12	14
50	501	1.22	14
50	542	1.32	14
50	583	1.42	14
50	624	1.52	14
50	665	1.62	14
50	706	1.72	14
50	747	1.82	14
50	788	1.92	14
50	860	2.02	14
50	901	2.12	14
50	942	2.22	14
51	19	0.12	-1.50421e-05
51	60	0.22	-5.22115e-05
51	101	0.32	-9.86325e-05
51	142	0.42	-0.000146379
51	183	0.52	-0.000190718
51	224	0.62	-0.000228963
51	265	0.72	-0.000259724
51	306	0.82	-0.000282434
51	347	0.92	-0.000297044
51	419	1.02	-0.000303836
51	460	1.12	-0.000303302
51	501	1.22	-0.000296066
51	542	1.32	-0.000282838
51	583	1.42	-0.000264372
51	624	1.52	-0.000241451
51	665	1.62	-0.000214856
51	706	1.72	-0.000185359
51	747	1.82	-0.000153706
51	788	1.92	-0.000120604
51	860	2.02	-8.67143e-05
51	901	2.12	-5.26458e-05
51	942	2.22	-1.89472e-05
52	19	0.12	-0.000153422
52	60	0.22	-0.000267205
52	101	0.32	-0.000338774
52	142	0.42	-0.000380397
52	183	0.52	-0.000400315
52	224	0.62	-0.000404112
52	265	0.72	-0.000395639
52	306	0.82	-0.000377643
52	347	0.92	-0.000352173
52	419	1.02	-0.000320845
52	460	1.12	-0.000284998
52	501	1.22	-0.000245796
52	542	1.32	-0.000204275
52	583	1.42	-0.000161371
52	624	1.52	-0.000117933
52	665	1.62	-7.47248e-05
52	706	1.72	-3.24214e-05
52	747	1.82	8.38819e-06
52	788	1.92	4.72042e-05
52	860	2.02	8.36147e-05
52	901	2.12	0.000117293
52	942	2.22	0.000147995
53	19	0.12	32.75
53	60	0.22	32.75
53	101	0.32	32.75
53	142	0.42	32.75
53	183	0.52	32.75
53	224	0.62	32.7499
53	265	0.72	32.7499
53	306	0.82	32.7499
53	347	0.92	32.7499
53	419	1.02	32.7498
53	460	1.12	32.7498
53	501	1.22	32.7498
53	542	1.32	32.7497
53	583	1.42	32.7497
53	624	1.52	32.7497
53	665	1.62	32.7497
53	706	1.72	32.7496
53	747	1.82	32.7496
53	788	1.92	32.7496
53	860	2.02	32.7496
53	901	2.12	32.7496
53	942	2.22	32.7496
54	19	0.12	50.6971
54	60	0.22	48.6213
54	101	0.32	46.5455
54	142	0.42	44.4697
54	183	0.52	42.3938
54	224	0.62	40.6654
54	265	0.72	38.9953
54	306	0.82	37.3252
54	347	0.92	35.6551
54	419	1.02	33.985
54	460	1.12	32.3149
54	501	1.22	30.6449
54	542	1.32	28.9748
54	583	1.42	27.3047
54	624	1.52	25.7566
54	665	1.62	24.5337
54	706	1.72	23.3108
54	747	1.82	22.0879
54	788	1.92	20.8649
54	860	2.02	19.642
54	901	2.12	18.4191
54	942	2.22	17.1962
55	19	0.12	75.1994
55	60	0.22	77.6297
55	101	0.32	80.06
55	142	0.42	82.4903
55	183	0.52	84.9206
55	224	0.62	87.6033
55	265	0.72	90.3284
55	306	0.82	93.0535
55	347	0.92	95.7786
55	419	1.02	98.5036
55	460	1.12	101.229
55	501	1.22	103.954
55	542	1.32	106.679
55	583	1.42	109.404
55	624	1.52	112.191
55	665	1.62	115.144
55	706	1.72	118.097
55	747	1.82	121.05
55	788	1.92	124.003
55	860	2.02	126.956
55	901	2.12	129.909
55	942	2.22	132.861
56	20	0.12	18.38
56	61	0.22	18.38
56	102	0.32	18.38
56	143	0.42	18.38
56	184	0.52	18.38
56	225	0.62	18.38
56	266	0.72	18.38
56	307	0.82	18.3799
56	348	0.92	18.3799
56	420	1.02	18.3799
56	461	1.12	18.3798
56	502	1.22	18.3798
56	543	1.32	18.3798
56	584	1.42	18.3797
56	625	1.52	18.3796
56	666	1.62	18.3796
56	707	1.72	18.3795
56	748	1.82	18.3794
56	789	1.92	18.3793
56	861	2.02	18.3792
56	902	2.12	18.3792
56	943	2.22	18.3791
57	20	0.12	-1.14864e-06
57	61	0.22	-8.00521e-06
57	102	0.32	-2.34795e-05
57	143	0.42	-4.84902e-05
57	184	0.52	-8.27558e-05
57	225	0.62	-0.000125306
57	266	0.72	-0.000174812
57	307	0.82	-0.000229795
57	348	0.92	-0.000288755
57	420	1.02	-0.000350257
57	461	1.12	-0.000412975
57	502	1.22	-0.000475723
57	543	1.32	-0.000537463
57	584	1.42	-0.00059731
57	625	1.52	-0.00065453
57	666	1.62	-0.000708532
57	707	1.72	-0.000758858
57	748	1.82	-0.000805171
57	789	1.92	-0.000847244
57	861	2.02	-0.000884946
57	902	2.12	-0.000918227
57	943	2.22	-0.00094711
58	20	0.12	15
58	61	0.22	15
58	102	0.32	15
58	143	0.42	15
58	184	0.52	15
58	225	0.62	15
58	266	0.72	15
58	307	0.82	15
58	348	0.92	15
58	420	1.02	15
58	461	1.12	15
58	502	1.22	15
58	543	1.32	15
58	584	1.42	15
58	625	1.52	15
58	666	1.62	15
58	707	1.72	15
58	748	1.82	15
58	789	1.92	15
58	861	2.02	15
58	902	2.12	15
58	943	2.22	15
59	20	0.12	1.50421e-05
59	61	0.22	5.22134e-05
59	102	0.32	9.86572e-05
59	143	0.42	0.000146513
59	184	0.52	0.000191187
59	225	0.62	0.000230207
59	266	0.72	0.000262469
59	307	0.82	0.000287731
59	348	0.92	0.000306289
59	420	1.02	0.000318745
59	461	1.12	0.000325863
59	502	1.22	0.000328468
59	543	1.32	0.000327381
59	584	1.42	0.000323371
59	625	1.52	0.000317134
59	666	1.62	0.000309277
59	707	1.72	0.000300309
59	748	1.82	0.000290645
59	789	1.92	0.000280606
59	861	2.02	0.000270432
59	902	2.12	0.000260287
59	943	2.22	0.000250272
60	20	0.12	0.000153423
60	61	0.22	0.000267234
60	102	0.32	0.000339029
60	143	0.42	0.00038144
60	184	0.52	0.000403239
60	225	0.62	0.000410607
60	266	0.72	0.000407973
60	307	0.82	0.000398566
60	348	0.92	0.000384767
60	420	1.02	0.000368346
60	461	1.12	0.000350613
60	502	1.22	0.000332523
60	543	1.32	0.000314757
60	584	1.42	0.000297771
60	625	1.52	0.000281843
60	666	1.62	0.00026711
60	707	1.72	0.000253598
60	748	1.82	0.000241248
60	789	1.92	0.000229941
60	861	2.02	0.000219518
60	902	2.12	0.000209794
60	943	2.22	0.000200577
61	20	0.12	32.75
61	61	0.22	32.75
61	102	0.32	32.75
61	143	0.42	32.75
61	184	0.52	32.75
61	225	0.62	32.7501
61	266	0.72	32.7501
61	307	0.82	32.7501
61	348	0.92	32.7501
61	420	1.02	32.7502
61	461	1.12	32.7502
61	502	1.22	32.7502
61	543	1.32	32.7503
61	584	1.42	32.7503
61	625	1.52	32.7503
61	666	1.62	32.7504
61	707	1.72	32.7504
61	748	1.82	32.7504
61	789	1.92	32.7505
61	861	2.02	32.7505
61	902	2.12	32.7505
61	943	2.22	32.7505
62	20	0.12	65.3773
62	61	0.22	62.9471
62	102	0.32	60.7308
62	143	0.42	58.655
62	184	0.52	56.5792
62	225	0.62	54.5034
62	266	0.72	52.4275
62	307	0.82	50.3517
62	348	0.92	48.2758
62	420	1.02	46.2
62	461	1.12	44.1242
62	502	1.22	42.0575
62	543	1.32	40.3874
62	584	1.42	38.7173
62	625	1.52	37.0472
62	666	1.62	35.3771
62	707	1.72	33.7069
62	748	1.82	32.0368
62	789	1.92	30.3667
62	861	2.02	28.6966
62	902	2.12	27.0265
62	943	2.22	25.5528
63	20	0.12	59.0867
63	61	0.22	61.1625
63	102	0.32	63.4524
63	143	0.42	65.8827
63	184	0.52	68.313
63	225	0.62	70.7433
63	266	0.72	73.1736
63	307	0.82	75.6039
63	348	0.92	78.0342
63	420	1.02	80.4645
63	461	1.12	82.8948
63	502	1.22	85.3318
63	543	1.32	88.0569
63	584	1.42	90.782
63	625	1.52	93.5071
63	666	1.62	96.2323
63	707	1.72	98.9574
63	748	1.82	101.683
63	789	1.92	104.408
63	861	2.02	107.133
63	902	2.12	109.858
63	943	2.22	112.683
64	21	0.12	18.37
64	62	0.22	18.37
64	103	0.32	18.37
64	144	0.42	18.37
64	185	0.52	18.37
64	226	0.62	18.37
64	267	0.72	18.37
64	308	0.82	18.3701
64	349	0.92	18.3701
64	421	1.02	18.3701
64	462	1.12	18.3702
64	503	1.22	18.3702
64	544	1.32	18.3703
64	585	1.42	18.3703
64	626	1.52	18.3704
64	667	1.62	18.3704
64	708	1.72	18.3705
64	749	1.82	18.3706
64	790	1.92	18.3707
64	862	2.02	18.3708
64	903	2.12	18.3709
64	944	2.22	18.371
65	21	0.12	1.14864e-06
65	62	0.22	8.00526e-06
65	103	0.32	2.34806e-05
65	144	0.42	4.8498e-05
65	185	0.52	8.27894e-05
65	226	0.62	0.000125413
65	267	0.72	0.000175084
65	308	0.82	0.000230391
65	349	0.92	0.000289919
65	421	1.02	0.000352333
65	462	1.12	0.000416415
65	503	1.22	0.000481089
65	544	1.32	0.00054542
65	585	1.42	0.000608614
65	626	1.52	0.000670005
65	667	1.62	0.000729047
65	708	1.72	0.000785296
65	749	1.82	0.000838402
65	790	1.92	0.00088809
65	862	2.02	0.000934155
65	903	2.12	0.000976447
65	944	2.22	0.00101486
66	21	0.12	16
66	62	0.22	16
66	103	0.32	16
66	144	0.42	16
66	185	0.52	16
66	226	0.62	16
66	267	0.72	16
66	308	0.82	16
66	349	0.92	16
66	421	1.02	16
66	462	1.12	16
66	503	1.22	16
66	544	1.32	16
66	585	1.42	16
66	626	1.52	16
66	667	1.62	16
66	708	1.72	16
66	749	1.82	16
66	790	1.92	16
66	862	2.02	16
66	903	2.12	16
66	944	2.22	16
67	21	0.12	-1.50421e-05
67	62	0.22	-5.22133e-05
67	103	0.32	-9.86555e-05
67	144	0.42	-0.0001465
67	185	0.52	-0.000191128
67	226	0.62	-0.000230016
67	267	0.72	-0.00026197
67	308	0.82	-0.000286622
67	349	0.92	-0.000304098
67	421	1.02	-0.000314805
67	462	1.12	-0.000319291
67	503	1.22	-0.000318158
67	544	1.32	-0.000312016
67	585	1.42	-0.000301454
67	626	1.52	-0.000287021
67	667	1.62	-0.00026923
67	708	1.72	-0.000248554
67	749	1.82	-0.000225429
67	790	1.92	-0.000200265
67	862	2.02	-0.000173443
67	903	2.12	-0.000145326
67	944	2.22	-0.000116256
68	21	0.12	-0.000153423
68	62	0.22	-0.000267233
68	103	0.32	-0.000339008
68	144	0.42	-0.000381322
68	185	0.52	-0.000402812
68	226	0.62	-0.000409447
68	267	0.72	-0.000405375
68	308	0.82	-0.000393495
68	349	0.92	-0.000375842
68	421	1.02	-0.000353857
68	462	1.12	-0.000328569
68	503	1.22	-0.000300727
68	544	1.32	-0.00027089
68	585	1.42	-0.000239493
68	626	1.52	-0.000206895
68	667	1.62	-0.000173407
68	708	1.72	-0.000139314
68	749	1.82	-0.000104891
68	790	1.92	-7.04068e-05
68	862	2.02	-3.6128e-05
68	903	2.12	-2.31995e-06
68	944	2.22	3.07565e-05
69	21	0.12	32.75
69	62	0.22	32.75
69	103	0.32	32.75
69	144	0.42	32.75
69	185	0.52	32.75
69	226	0.62	32.7499
69	267	0.72	32.7499
69	308	0.82	32.7499
69	349	0.92	32.7499
69	421	1.02	32.7498
69	462	1.12	32.7498
69	503	1.22	32.7498
69	544	1.32	32.7497
69	585	1.42	32.7497
69	626	1.52	32.7497
69	667	1.62	32.7496
69	708	1.72	32.7496
69	749	1.82	32.7496
69	790	1.92	32.7496
69	862	2.02	32.7496
69	903	2.12	32.7495
69	944	2.22	32.7495
70	21	0.12	81.9775
70	62	0.22	79.5472
70	103	0.32	77.1169
70	144	0.42	74.6867
70	185	0.52	72.2564
70	226	0.62	69.8261
70	267	0.72	67.3958
70	308	0.82	64.9655
70	349	0.92	62.5352
70	421	1.02	60.3791
70	462	1.12	58.3033
70	503	1.22	56.2275
70	544	1.32	54.1517
70	585	1.42	52.0758
70	626	1.52	50
70	667	1.62	47.9242
70	708	1.72	45.8484
70	749	1.82	43.7726
70	790	1.92	41.7747
70	862	2.02	40.1046
70	903	2.12	38.4345
70	944	2.22	36.7645
71	21	0.12	44.9077
71	62	0.22	46.9835
71	103	0.32	49.0593
71	144	0.42	51.1351
71	185	0.52	53.211
71	226	0.62	55.2868
71	267	0.72	57.3626
71	308	0.82	59.4384
71	349	0.92	61.5143
71	421	1.02	63.8642
71	462	1.12	66.2945
71	503	1.22	68.7248
71	544	1.32	71.1551
71	585	1.42	73.5853
71	626	1.52	76.0156
71	667	1.62	78.4459
71	708	1.72	80.8761
71	749	1.82	83.3064
71	790	1.92	85.7932
71	862	2.02	88.5183
71	903	2.12	91.2433
71	944	2.22	93.9684
72	22	0.12	18.38
72	63	0.22	18.38
72	104	0.32	18.38
72	145	0.42	18.38
72	186	0.52	18.38
72	227	0.62	18.38
72	268	0.72	18.38
72	309	0.82	18.3799
72	350	0.92	18.3799
72	422	1.02	18.3799
72	463	1.12	18.3798
72	504	1.22	18.3798
72	545	1.32	18.3798
72	586	1.42	18.3797
72	627	1.52	18.3796
72	668	1.62	18.3796
72	709	1.72	18.3795
72	750	1.82	18.3794
72	791	1.92	18.3793
72	863	2.02	18.3792
72	904	2.12	18.3791
72	945	2.22	18.379
73	22	0.12	-1.14864e-06
73	63	0.22	-8.00526e-06
73	104	0.32	-2.34805e-05
73	145	0.42	-4.84973e-05
73	186	0.52	-8.27857e-05
73	227	0.62	-0.000125398
73	268	0.72	-0.000175041
73	309	0.82	-0.000230281
73	350	0.92	-0.000289676
73	422	1.02	-0.000351849
73	463	1.12	-0.000415531
73	504	1.22	-0.000479581
73	545	1.32	-0.000542994
73	586	1.42	-0.0006049
73	627	1.52	-0.000664555
73	668	1.62	-0.000721341
73	709	1.72	-0.000774747
73	750	1.82	-0.00082437
73	791	1.92	-0.000869896
73	863	2.02	-0.000911099
73	904	2.12	-0.000947829
73	945	2.22	-0.000980003
74	22	0.12	17
74	63	0.22	17
74	104	0.32	17
74	145	0.42	17
74	186	0.52	17
74	227	0.62	17
74	268	0.72	17
74	309	0.82	17
74	350	0.92	17
74	422	1.02	17
74	463	1.12	17
74	504	1.22	17
74	545	1.32	17
74	586	1.42	17
74	627	1.52	17
74	668	1.62	17
74	709	1.72	17
74	750	1.82	17
74	791	1.92	17
74	863	2.02	17
74	904	2.12	17
74	945	2.22	17
75	22	0.12	1.50421e-05
75	63	0.22	5.22134e-05
75	104	0.32	9.86556e-05
75	145	0.42	0.000146501
75	186	0.52	0.000191135
75	227	0.62	0.000230041
75	268	0.72	0.000262048
75	309	0.82	0.000286824
75	350	0.92	0.00030455
75	422	1.02	0.000315714
75	463	1.12	0.000320964
75	504	1.22	0.00032103
75	545	1.32	0.000316663
75	586	1.42	0.000308602
75	627	1.52	0.000297552
75	668	1.62	0.000284175
75	709	1.72	0.000269077
75	750	1.82	0.000252808
75	791	1.92	0.000235856
75	863	2.02	0.000218648
75	904	2.12	0.000201555
75	945	2.22	0.000184883
76	22	0.12	0.000153423
76	63	0.22	0.000267233
76	104	0.32	0.00033901
76	145	0.42	0.000381333
76	186	0.52	0.000402865
76	227	0.62	0.000409623
76	268	0.72	0.000405841
76	309	0.82	0.000394544
76	350	0.92	0.000377934
76	422	1.02	0.000357648
76	463	1.12	0.000334935
76	504	1.22	0.000310766
76	545	1.32	0.000285915
76	586	1.42	0.000261005
76	627	1.52	0.000236543
76	668	1.62	0.00021294
76	709	1.72	0.000190523
76	750	1.82	0.000169544
76	791	1.92	0.000150191
76	863	2.02	0.000132588
76	904	2.12	0.000116802
76	945	2.22	0.000102852
77	22	0.12	32.75
77	63	0.22	32.75
77	104	0.32	32.75
77	145	0.42	32.75
77	186	0.52	32.75
77	227	0.62	32.7501
77	268	0.72	32.7501
77	309	0.82	32.7501
77	350	0.92	32.7501
77	422	1.02	32.7502
77	463	1.12	32.7502
77	504	1.22	32.7502
77	545	1.32	32.7503
77	586	1.42	32.7503
77	627	1.52	32.7503
77	668	1.62	32.7504
77	709	1.72	32.7504
77	750	1.82	32.7504
77	791	1.92	32.7504
77	863	2.02	32.7505
77	904	2.12	32.7505
77	945	2.22	32.7505
78	22	0.12	100.2
78	63	0.22	97.4752
78	104	0.32	94.7501
78	145	0.42	92.025
78	186	0.52	89.2999
78	227	0.62	86.5748
78	268	0.72	84.0034
78	309	0.82	81.5731
78	350	0.92	79.1428
78	422	1.02	76.7125
78	463	1.12	74.2822
78	504	1.22	71.8519
78	545	1.32	69.4215
78	586	1.42	66.9912
78	627	1.52	64.5609
78	668	1.62	62.1306
78	709	1.72	60.0335
78	750	1.82	57.9576
78	791	1.92	55.8817
78	863	2.02	53.8059
78	904	2.12	51.73
78	945	2.22	49.6542
79	22	0.12	32.9452
79	63	0.22	34.6153
79	104	0.32	36.2854
79	145	0.42	37.9555
79	186	0.52	39.6256
79	227	0.62	41.2957
79	268	0.72	43.1773
79	309	0.82	45.2531
79	350	0.92	47.329
79	422	1.02	49.4048
79	463	1.12	51.4806
79	504	1.22	53.5565
79	545	1.32	55.6323
79	586	1.42	57.7082
79	627	1.52	59.784
79	668	1.62	61.8599
79	709	1.72	64.2689
79	750	1.82	66.6992
79	791	1.92	69.1295
79	863	2.02	71.5599
79	904	2.12	73.9902
79	945	2.22	76.4205
80	23	0.12	37.736
80	64	0.22	37.876
80	105	0.32	38.016
80	146	0.42	38.156
80	187	0.52	38.296
80	228	0.62	38.436
80	269	0.72	38.576
80	310	0.82	38.716
80	351	0.92	38.856
80	423	1.02	38.9961
80	464	1.12	39.1361
80	505	1.22	39.2761
80	546	1.32	39.4161
80	587	1.42	39.5562
80	628	1.52	39.6962
80	669	1.62	39.8362
80	710	1.72	39.9763
80	751	1.82	40.1163
80	792	1.92	40.2563
80	864	2.02	40.3964
80	905	2.12	40.5364
80	946	2.22	40.6765
81	23	0.12	1.4
81	64	0.22	1.4
81	105	0.32	1.40001
81	146	0.42	1.40002
81	187	0.52	1.40004
81	228	0.62	1.40006
81	269	0.72	1.40009
81	310	0.82	1.40012
81	351	0.92	1.40014
81	423	1.02	1.40018
81	464	1.12	1.40021
81	505	1.22	1.40024
81	546	1.32	1.40027
81	587	1.42	1.4003
81	628	1.52	1.40033
81	669	1.62	1.40036
81	710	1.72	1.40039
81	751	1.82	1.40042
81	792	1.92	1.40044
81	864	2.02	1.40046
81	905	2.12	1.40048
81	946	2.22	1.4005
82	23	0.12	18
82	64	0.22	18
82	105	0.32	18
82	146	0.42	18
82	187	0.52	18
82	228	0.62	18
82	269	0.72	18
82	310	0.82	18
82	351	0.92	18
82	423	1.02	18
82	464	1.12	18
82	505	1.22	18
82	546	1.32	18
82	587	1.42	18
82	628	1.52	18
82	669	1.62	18
82	710	1.72	18
82	751	1.82	18
82	792	1.92	18
82	864	2.02	18
82	905	2.12	18
82	946	2.22	18
83	23	0.12	0
83	64	0.22	0
83	105	0.32	0
83	146	0.42	0
83	187	0.52	0
83	228	0.62	0
83	269	0.72	0
83	310	0.82	0
83	351	0.92	0
83	423	1.02	0
83	464	1.12	0
83	505	1.22	0
83	546	1.32	0
83	587	1.42	0
83	628	1.52	0
83	669	1.62	0
83	710	1.72	0
83	751	1.82	0
83	792	1.92	0
83	864	2.02	0
83	905	2.12	0
83	946	2.22	0
84	23	0.12	0
84	64	0.22	0
84	105	0.32	0
84	146	0.42	0
84	187	0.52	0
84	228	0.62	0
84	269	0.72	0
84	310	0.82	0
84	351	0.92	0
84	423	1.02	0
84	464	1.12	0
84	505	1.22	0
84	546	1.32	0
84	587	1.42	0
84	628	1.52	0
84	669	1.62	0
84	710	1.72	0
84	751	1.82	0
84	792	1.92	0
84	864	2.02	0
84	905	2.12	0
84	946	2.22	0
85	23	0.12	31.35
85	64	0.22	31.35
85	105	0.32	31.35
85	146	0.42	31.35
85	187	0.52	31.35
85	228	0.62	31.35
85	269	0.72	31.35
85	310	0.82	31.35
85	351	0.92	31.35
85	423	1.02	31.35
85	464	1.12	31.35
85	505	1.22	31.35
85	546	1.32	31.35
85	587	1.42	31.35
85	628	1.52	31.35
85	669	1.62	31.35
85	710	1.72	31.35
85	751	1.82	31.35
85	792	1.92	31.35
85	864	2.02	31.35
85	905	2.12	31.35
85	946	2.22	31.35
86	23	0.12	136.897
86	64	0.22	134.07
86	105	0.32	131.243
86	146	0.42	128.417
86	187	0.52	125.59
86	228	0.62	122.763
86	269	0.72	119.937
86	310	0.82	117.11
86	351	0.92	114.283
86	423	1.02	111.456
86	464	1.12	108.842
86	505	1.22	106.234
86	546	1.32	103.625
86	587	1.42	101.017
86	628	1.52	98.408
86	669	1.62	95.7994
86	710	1.72	93.1908
86	751	1.82	90.5822
86	792	1.92	87.9735
86	864	2.02	85.3649
86	905	2.12	83.0283
86	946	2.22	80.7019
87	23	0.12	15.5251
87	64	0.22	16.6957
87	105	0.32	17.8663
87	146	0.42	19.037
87	187	0.52	20.2076
87	228	0.62	21.3783
87	269	0.72	22.5489
87	310	0.82	23.7196
87	351	0.92	24.8902
87	423	1.02	26.0609
87	464	1.12	27.6489
87	505	1.22	29.2476
87	546	1.32	30.8463
87	587	1.42	32.445
87	628	1.52	34.0437
87	669	1.62	35.6424
87	710	1.72	37.2411
87	751	1.82	38.8398
87	792	1.92	40.4384
87	864	2.02	42.0371
87	905	2.12	44.0101
87	946	2.22	45.9972
88	24	0.12	17.68
88	65	0.22	17.68
88	106	0.32	17.68
88	147	0.42	17.68
88	188	0.52	17.68
88	229	0.62	17.68
88	270	0.72	17.68
88	311	0.82	17.68
88	352	0.92	17.6799
88	424	1.02	17.6799
88	465	1.12	17.6799
88	506	1.22	17.6799
88	547	1.32	17.6798
88	588	1.42	17.6798
88	629	1.52	17.6797
88	670	1.62	17.6797
88	711	1.72	17.6796
88	752	1.82	17.6795
88	793	1.92	17.6795
88	865	2.02	17.6794
88	906	2.12	17.6793
88	947	2.22	17.6792
89	24	0.12	-5.9747e-07
89	65	0.22	-4.36134e-06
89	106	0.32	-1.33559e-05
89	147	0.42	-2.87146e-05
89	188	0.52	-5.0881e-05
89	229	0.62	-7.97978e-05
89	270	0.72	-0.000115055
89	311	0.82	-0.000156007
89	352	0.92	-0.000201858
89	424	1.02	-0.000251733
89	465	1.12	-0.000304726
89	506	1.22	-0.000359939
89	547	1.32	-0.000416511
89	588	1.42	-0.000473632
89	629	1.52	-0.000530556
89	670	1.62	-0.000586614
89	711	1.72	-0.000641211
89	752	1.82	-0.000693828
89	793	1.92	-0.000744025
89	865	2.02	-0.000791431
89	906	2.12	-0.000835746
89	947	2.22	-0.000876734
90	24	0.12	19
90	65	0.22	19
90	106	0.32	19
90	147	0.42	19
90	188	0.52	19
90	229	0.62	19
90	270	0.72	19
90	311	0.82	19
90	352	0.92	19
90	424	1.02	19
90	465	1.12	19
90	506	1.22	19
90	547	1.32	19
90	588	1.42	19
90	629	1.52	19
90	670	1.62	19
90	711	1.72	19
90	752	1.82	19
90	793	1.92	19
90	865	2.02	19
90	906	2.12	19
90	947	2.22	19
91	24	0.12	1.58603e-05
91	65	0.22	5.8589e-05
91	106	0.32	0.000117325
91	147	0.42	0.000183938
91	188	0.52	0.000252455
91	229	0.62	0.000318596
91	270	0.72	0.000379408
91	311	0.82	0.000432957
91	352	0.92	0.000478098
91	424	1.02	0.000514277
91	465	1.12	0.000541386
91	506	1.22	0.000559637
91	547	1.32	0.000569475
91	588	1.42	0.000571495
91	629	1.52	0.000566395
91	670	1.62	0.000554924
91	711	1.72	0.000537853
91	752	1.82	0.00051595
91	793	1.92	0.00048996
91	865	2.02	0.000460595
91	906	2.12	0.000428522
91	947	2.22	0.000394359
92	24	0.12	0.000165937
92	65	0.22	0.000316035
92	106	0.32	0.000434506
92	147	0.42	0.000525481
92	188	0.52	0.000592651
92	229	0.62	0.000639305
92	270	0.72	0.000668376
92	311	0.82	0.000682469
92	352	0.92	0.000683897
92	424	1.02	0.000674711
92	465	1.12	0.000656721
92	506	1.22	0.000631527
92	547	1.32	0.000600534
92	588	1.42	0.000564975
92	629	1.52	0.000525927
92	670	1.62	0.000484331
92	711	1.72	0.000440999
92	752	1.82	0.000396637
92	793	1.92	0.000351847
92	865	2.02	0.000307144
92	906	2.12	0.000262964
92	947	2.22	0.000219674
93	24	0.12	31.35
93	65	0.22	31.35
93	106	0.32	31.35
93	147	0.42	31.35
93	188	0.52	31.3501
93	229	0.62	31.3501
93	270	0.72	31.3501
93	311	0.82	31.3502
93	352	0.92	31.3502
93	424	1.02	31.3503
93	465	1.12	31.3503
93	506	1.22	31.3504
93	547	1.32	31.3504
93	588	1.42	31.3505
93	629	1.52	31.3505
93	670	1.62	31.3506
93	711	1.72	31.3506
93	752	1.82	31.3507
93	793	1.92	31.3507
93	865	2.02	31.3508
93	906	2.12	31.3508
93	947	2.22	31.3509
94	24	0.12	157.323
94	65	0.22	154.348
94	106	0.32	151.373
94	147	0.42	148.398
94	188	0.52	145.424
94	229	0.62	142.449
94	270	0.72	139.485
94	311	0.82	136.658
94	352	0.92	133.831
94	424	1.02	131.004
94	465	1.12	128.178
94	506	1.22	125.351
94	547	1.32	122.524
94	588	1.42	119.697
94	629	1.52	116.871
94	670	1.62	114.044
94	711	1.72	111.23
94	752	1.82	108.622
94	793	1.92	106.013
94	865	2.02	103.404
94	906	2.12	100.796
94	947	2.22	98.1868
95	24	0.12	10.1323
95	65	0.22	10.847
95	106	0.32	11.5617
95	147	0.42	12.2764
95	188	0.52	12.9911
95	229	0.62	13.7058
95	270	0.72	14.4534
95	311	0.82	15.624
95	352	0.92	16.7947
95	424	1.02	17.9653
95	465	1.12	19.136
95	506	1.22	20.3066
95	547	1.32	21.4773
95	588	1.42	22.648
95	629	1.52	23.8186
95	670	1.62	24.9893
95	711	1.72	26.1855
95	752	1.82	27.7842
95	793	1.92	29.383
95	865	2.02	30.9817
95	906	2.12	32.5804
95	947	2.22	34.1792
96	25	0.12	18.07
96	66	0.22	18.07
96	107	0.32	18.07
96	148	0.42	18.07
96	189	0.52	18.07
96	230	0.62	18.07
96	271	0.72	18.07
96	312	0.82	18.07
96	353	0.92	18.07
96	425	1.02	18.07
96	466	1.12	18.07
96	507	1.22	18.07
96	548	1.32	18.07
96	589	1.42	18.07
96	630	1.52	18.07
96	671	1.62	18.07
96	712	1.72	18.07
96	753	1.82	18.07
96	794	1.92	18.07
96	866	2.02	18.07
96	907	2.12	18.07
96	948	2.22	18.07
97	25	0.12	0
97	66	0.22	0
97	107	0.32	0
97	148	0.42	0
97	189	0.52	0
97	230	0.62	0
97	271	0.72	0
97	312	0.82	0
97	353	0.92	0
97	425	1.02	0
97	466	1.12	0
97	507	1.22	0
97	548	1.32	0
97	589	1.42	0
97	630	1.52	0
97	671	1.62	0
97	712	1.72	0
97	753	1.82	0
97	794	1.92	0
97	866	2.02	0
97	907	2.12	0
97	948	2.22	0
98	25	0.12	2
98	66	0.22	2
98	107	0.32	2
98	148	0.42	2
98	189	0.52	2
98	230	0.62	2
98	271	0.72	2
98	312	0.82	2
98	353	0.92	2
98	425	1.02	2
98	466	1.12	2
98	507	1.22	2
98	548	1.32	2
98	589	1.42	2
98	630	1.52	2
98	671	1.62	2
98	712	1.72	2
98	753	1.82	2
98	794	1.92	2
98	866	2.02	2
98	907	2.12	2
98	948	2.22	2
99	25	0.12	0
99	66	0.22	0
99	107	0.32	0
99	148	0.42	0
99	189	0.52	0
99	230	0.62	0
99	271	0.72	0
99	312	0.82	0
99	353	0.92	0
99	425	1.02	0
99	466	1.12	0
99	507	1.22	0
99	548	1.32	0
99	589	1.42	0
99	630	1.52	0
99	671	1.62	0
99	712	1.72	0
99	753	1.82	0
99	794	1.92	0
99	866	2.02	0
99	907	2.12	0
99	948	2.22	0
100	25	0.12	0
100	66	0.22	0
100	107	0.32	0
100	148	0.42	0
100	189	0.52	0
100	230	0.62	0
100	271	0.72	0
100	312	0.82	0
100	353	0.92	0
100	425	1.02	0
100	466	1.12	0
100	507	1.22	0
100	548	1.32	0
100	589	1.42	0
100	630	1.52	0
100	671	1.62	0
100	712	1.72	0
100	753	1.82	0
100	794	1.92	0
100	866	2.02	0
100	907	2.12	0
100	948	2.22	0
101	25	0.12	32.14
101	66	0.22	32.14
101	107	0.32	32.14
101	148	0.42	32.14
101	189	0.52	32.14
101	230	0.62	32.14
101	271	0.72	32.14
101	312	0.82	32.14
101	353	0.92	32.14
101	425	1.02	32.14
101	466	1.12	32.14
101	507	1.22	32.14
101	548	1.32	32.14
101	589	1.42	32.14
101	630	1.52	32.14
101	671	1.62	32.14
101	712	1.72	32.14
101	753	1.82	32.14
101	794	1.92	32.14
101	866	2.02	32.14
101	907	2.12	32.14
101	948	2.22	32.14
102	25	0.12	51.6841
102	66	0.22	49.6805
102	107	0.32	47.6768
102	148	0.42	45.6731
102	189	0.52	43.8693
102	230	0.62	42.2573
102	271	0.72	40.6453
102	312	0.82	39.0332
102	353	0.92	37.4212
102	425	1.02	35.8092
102	466	1.12	34.1972
102	507	1.22	32.5851
102	548	1.32	30.9731
102	589	1.42	29.3611
102	630	1.52	28.0706
102	671	1.62	26.8902
102	712	1.72	25.7098
102	753	1.82	24.5294
102	794	1.92	23.349
102	866	2.02	22.1686
102	907	2.12	20.9882
102	948	2.22	19.8078
103	25	0.12	78.971
103	66	0.22	81.3168
103	107	0.32	83.6626
103	148	0.42	86.0084
103	189	0.52	88.4994
103	230	0.62	91.1297
103	271	0.72	93.7601
103	312	0.82	96.3905
103	353	0.92	99.0208
103	425	1.02	101.651
103	466	1.12	104.282
103	507	1.22	106.912
103	548	1.32	109.542
103	589	1.42	112.173
103	630	1.52	114.967
103	671	1.62	117.817
103	712	1.72	120.667
103	753	1.82	123.518
103	794	1.92	126.368
103	866	2.02	129.218
103	907	2.12	132.069
103	948	2.22	134.919
104	26	0.12	17.67
104	67	0.22	17.67
104	108	0.32	17.67
104	149	0.42	17.67
104	190	0.52	17.67
104	231	0.62	17.67
104	272	0.72	17.67
104	313	0.82	17.6701
104	354	0.92	17.6701
104	426	1.02	17.6701
104	467	1.12	17.6702
104	508	1.22	17.6702
104	549	1.32	17.6703
104	590	1.42	17.6703
104	631	1.52	17.6704
104	672	1.62	17.6705
104	713	1.72	17.6706
104	754	1.82	17.6707
104	795	1.92	17.6708
104	867	2.02	17.6709
104	908	2.12	17.671
104	949	2.22	17.6711
105	26	0.12	1.17114e-06
105	67	0.22	8.33948e-06
105	108	0.32	2.49224e-05
105	149	0.42	5.23112e-05
105	190	0.52	9.0531e-05
105	231	0.62	0.000138727
105	272	0.72	0.000195518
105	313	0.82	0.000259246
105	354	0.92	0.00032816
105	426	1.02	0.000400527
105	467	1.12	0.000474716
105	508	1.22	0.000549247
105	549	1.32	0.000622812
105	590	1.42	0.000694287
105	631	1.52	0.000762734
105	672	1.62	0.000827389
105	713	1.72	0.000887652
105	754	1.82	0.000943072
105	795	1.92	0.000993333
105	867	2.02	0.00103823
105	908	2.12	0.00107767
105	949	2.22	0.00111163
106	26	0.12	20
106	67	0.22	20
106	108	0.32	20
106	149	0.42	20
106	190	0.52	20
106	231	0.62	20
106	272	0.72	20
106	313	0.82	20
106	354	0.92	20
106	426	1.02	20
106	467	1.12	20
106	508	1.22	20
106	549	1.32	20
106	590	1.42	20
106	631	1.52	20
106	672	1.62	20
106	713	1.72	20
106	754	1.82	20
106	795	1.92	20
106	867	2.02	20
106	908	2.12	20
106	949	2.22	20
107	26	0.12	-1.50129e-05
107	67	0.22	-5.16611e-05
107	108	0.32	-9.60918e-05
107	149	0.42	-0.000139474
107	190	0.52	-0.000176558
107	231	0.62	-0.000204604
107	272	0.72	-0.000222577
107	313	0.82	-0.00023057
107	354	0.92	-0.000229374
107	426	1.02	-0.000220179
107	467	1.12	-0.000204361
107	508	1.22	-0.000183338
107	549	1.32	-0.000158478
107	590	1.42	-0.000131039
107	631	1.52	-0.000102136
107	672	1.62	-7.27288e-05
107	713	1.72	-4.36202e-05
107	754	1.82	-1.54606e-05
107	795	1.92	1.12398e-05
107	867	2.02	3.60971e-05
107	908	2.12	5.88384e-05
107	949	2.22	7.92863e-05
108	26	0.12	-0.000152827
108	67	0.22	-0.000261601
108	108	0.32	-0.000321563
108	149	0.42	-0.00034541
108	190	0.52	-0.000343123
108	231	0.62	-0.000322498
108	272	0.72	-0.000289579
108	313	0.82	-0.000249009
108	354	0.92	-0.000204313
108	426	1.02	-0.000158131
108	467	1.12	-0.000112397
108	508	1.22	-6.8499e-05
108	549	1.32	-2.73892e-05
108	590	1.42	1.03124e-05
108	631	1.52	4.42432e-05
108	672	1.62	7.42353e-05
108	713	1.72	0.000100267
108	754	1.82	0.000122423
108	795	1.92	0.000140866
108	867	2.02	0.000155808
108	908	2.12	0.000167497
108	949	2.22	0.0001762
109	26	0.12	31.35
109	67	0.22	31.35
109	108	0.32	31.35
109	149	0.42	31.35
109	190	0.52	31.35
109	231	0.62	31.3499
109	272	0.72	31.3499
109	313	0.82	31.3499
109	354	0.92	31.3499
109	426	1.02	31.3499
109	467	1.12	31.3498
109	508	1.22	31.3498
109	549	1.32	31.3498
109	590	1.42	31.3498
109	631	1.52	31.3498
109	672	1.62	31.3498
109	713	1.72	31.3498
109	754	1.82	31.3498
109	795	1.92	31.3498
109	867	2.02	31.3498
109	908	2.12	31.3498
109	949	2.22	31.3498
110	26	0.12	178.099
110	67	0.22	175.049
110	108	0.32	171.999
110	149	0.42	168.962
110	190	0.52	165.987
110	231	0.62	163.012
110	272	0.72	160.037
110	313	0.82	157.062
110	354	0.92	154.087
110	426	1.02	151.112
110	467	1.12	148.138
110	508	1.22	145.163
110	549	1.32	142.188
110	590	1.42	139.237
110	631	1.52	136.41
110	672	1.62	133.583
110	713	1.72	130.757
110	754	1.82	127.93
110	795	1.92	125.103
110	867	2.02	122.277
110	908	2.12	119.45
110	949	2.22	116.623
111	26	0.12	6.53686
111	67	0.22	6.77658
111	108	0.32	7.0163
111	149	0.42	7.33613
111	190	0.52	8.05084
111	231	0.62	8.76554
111	272	0.72	9.48025
111	313	0.82	10.195
111	354	0.92	10.9097
111	426	1.02	11.6244
111	467	1.12	12.3391
111	508	1.22	13.0538
111	549	1.32	13.7685
111	590	1.42	14.556
111	631	1.52	15.7266
111	672	1.62	16.8973
111	713	1.72	18.0679
111	754	1.82	19.2385
111	795	1.92	20.4092
111	867	2.02	21.5798
111	908	2.12	22.7505
111	949	2.22	23.9211
112	27	0.12	-1
112	68	0.22	-1
112	109	0.32	-1
112	150	0.42	-1
112	191	0.52	-1
112	232	0.62	-1
112	273	0.72	-1
112	314	0.82	-1
112	355	0.92	-1
112	427	1.02	-1
112	468	1.12	-1
112	509	1.22	-1
112	550	1.32	-1
112	591	1.42	-1
112	632	1.52	-1
112	673	1.62	-1
112	714	1.72	-1
112	755	1.82	-1
112	796	1.92	-1
112	868	2.02	-1
112	909	2.12	-1
112	950	2.22	-1
113	27	0.12	0
113	68	0.22	0
113	109	0.32	0
113	150	0.42	0
113	191	0.52	0
113	232	0.62	0
113	273	0.72	0
113	314	0.82	0
113	355	0.92	0
113	427	1.02	0
113	468	1.12	0
113	509	1.22	0
113	550	1.32	0
113	591	1.42	0
113	632	1.52	0
113	673	1.62	0
113	714	1.72	0
113	755	1.82	0
113	796	1.92	0
113	868	2.02	0
113	909	2.12	0
113	950	2.22	0
114	27	0.12	21
114	68	0.22	21
114	109	0.32	21
114	150	0.42	21
114	191	0.52	21
114	232	0.62	21
114	273	0.72	21
114	314	0.82	21
114	355	0.92	21
114	427	1.02	21
114	468	1.12	21
114	509	1.22	21
114	550	1.32	21
114	591	1.42	21
114	632	1.52	21
114	673	1.62	21
114	714	1.72	21
114	755	1.82	21
114	796	1.92	21
114	868	2.02	21
114	909	2.12	21
114	950	2.22	21
115	27	0.12	0
115	68	0.22	0
115	109	0.32	0
115	150	0.42	0
115	191	0.52	0
115	232	0.62	0
115	273	0.72	0
115	314	0.82	0
115	355	0.92	0
115	427	1.02	0
115	468	1.12	0
115	509	1.22	0
115	550	1.32	0
115	591	1.42	0
115	632	1.52	0
115	673	1.62	0
115	714	1.72	0
115	755	1.82	0
115	796	1.92	0
115	868	2.02	0
115	909	2.12	0
115	950	2.22	0
116	27	0.12	0
116	68	0.22	0
116	109	0.32	0
116	150	0.42	0
116	191	0.52	0
116	232	0.62	0
116	273	0.72	0
116	314	0.82	0
116	355	0.92	0
116	427	1.02	0
116	468	1.12	0
116	509	1.22	0
116	550	1.32	0
116	591	1.42	0
116	632	1.52	0
116	673	1.62	0
116	714	1.72	0
116	755	1.82	0
116	796	1.92	0
116	868	2.02	0
116	909	2.12	0
116	950	2.22	0
117	27	0.12	25.91
117	68	0.22	25.91
117	109	0.32	25.91
117	150	0.42	25.91
117	191	0.52	25.91
117	232	0.62	25.91
117	273	0.72	25.91
117	314	0.82	25.91
117	355	0.92	25.91
117	427	1.02	25.91
117	468	1.12	25.91
117	509	1.22	25.91
117	550	1.32	25.91
117	591	1.42	25.91
117	632	1.52	25.91
117	673	1.62	25.91
117	714	1.72	25.91
117	755	1.82	25.91
117	796	1.92	25.91
117	868	2.02	25.91
117	909	2.12	25.91
117	950	2.22	25.91
118	27	0.12	35.3709
118	68	0.22	34.0278
118	109	0.32	32.6848
118	150	0.42	31.3418
118	191	0.52	29.9988
118	232	0.62	28.6558
118	273	0.72	27.3128
118	314	0.82	25.9698
118	355	0.92	24.6267
118	427	1.02	23.2837
118	468	1.12	22.2859
118	509	1.22	21.3025
118	550	1.32	20.3191
118	591	1.42	19.3357
118	632	1.52	18.3522
118	673	1.62	17.3688
118	714	1.72	16.3854
118	755	1.82	15.402
118	796	1.92	14.4186
118	868	2.02	13.4351
118	909	2.12	12.4517
118	950	2.22	11.4683
119	27	0.12	90.1184
119	68	0.22	92.3098
119	109	0.32	94.5012
119	150	0.42	96.6926
119	191	0.52	98.884
119	232	0.62	101.075
119	273	0.72	103.267
119	314	0.82	105.458
119	355	0.92	107.65
119	427	1.02	109.841
119	468	1.12	112.208
119	509	1.22	114.583
119	550	1.32	116.958
119	591	1.42	119.332
119	632	1.52	121.707
119	673	1.62	124.081
119	714	1.72	126.456
119	755	1.82	128.831
119	796	1.92	131.205
119	868	2.02	133.58
119	909	2.12	135.955
119	950	2.22	138.329
120	28	0.12	14.95
120	69	0.22	14.95
120	110	0.32	14.95
120	151	0.42	14.95
120	192	0.52	14.95
120	233	0.62	14.95
120	274	0.72	14.95
120	315	0.82	14.95
120	356	0.92	14.9501
120	428	1.02	14.9501
120	469	1.12	14.9501
120	510	1.22	14.9501
120	551	1.32	14.9502
120	592	1.42	14.9502
120	633	1.52	14.9503
120	674	1.62	14.9503
120	715	1.72	14.9504
120	756	1.82	14.9505
120	797	1.92	14.9505
120	869	2.02	14.9506
120	910	2.12	14.9507
120	951	2.22	14.9508
121	28	0.12	5.9747e-07
121	69	0.22	4.36134e-06
121	110	0.32	1.33559e-05
121	151	0.42	2.87146e-05
121	192	0.52	5.0881e-05
121	233	0.62	7.97978e-05
121	274	0.72	0.000115055
121	315	0.82	0.000156007
121	356	0.92	0.000201858
121	428	1.02	0.000251733
121	469	1.12	0.000304726
121	510	1.22	0.000359939
121	551	1.32	0.000416511
121	592	1.42	0.000473632
121	633	1.52	0.000530556
121	674	1.62	0.000586614
121	715	1.72	0.000641211
121	756	1.82	0.000693828
121	797	1.92	0.000744025
121	869	2.02	0.000791431
121	910	2.12	0.000835746
121	951	2.22	0.000876734
122	28	0.12	22
122	69	0.22	22
122	110	0.32	22
122	151	0.42	22
122	192	0.52	22
122	233	0.62	22
122	274	0.72	22
122	315	0.82	22
122	356	0.92	22
122	428	1.02	22
122	469	1.12	22
122	510	1.22	22
122	551	1.32	22
122	592	1.42	22
122	633	1.52	22
122	674	1.62	22
122	715	1.72	22
122	756	1.82	22
122	797	1.92	22
122	869	2.02	22
122	910	2.12	22
122	951	2.22	22
123	28	0.12	-1.58603e-05
123	69	0.22	-5.8589e-05
123	110	0.32	-0.000117325
123	151	0.42	-0.000183938
123	192	0.52	-0.000252455
123	233	0.62	-0.000318596
123	274	0.72	-0.000379408
123	315	0.82	-0.000432957
123	356	0.92	-0.000478098
123	428	1.02	-0.000514277
123	469	1.12	-0.000541386
123	510	1.22	-0.000559637
123	551	1.32	-0.000569475
123	592	1.42	-0.000571495
123	633	1.52	-0.000566395
123	674	1.62	-0.000554924
123	715	1.72	-0.000537853
123	756	1.82	-0.00051595
123	797	1.92	-0.00048996
123	869	2.02	-0.000460595
123	910	2.12	-0.000428522
123	951	2.22	-0.000394359
124	28	0.12	-0.000165937
124	69	0.22	-0.000316035
124	110	0.32	-0.000434506
124	151	0.42	-0.000525481
124	192	0.52	-0.000592651
124	233	0.62	-0.000639305
124	274	0.72	-0.000668376
124	315	0.82	-0.000682469
124	356	0.92	-0.000683897
124	428	1.02	-0.000674711
124	469	1.12	-0.000656721
124	510	1.22	-0.000631527
124	551	1.32	-0.000600534
124	592	1.42	-0.000564975
124	633	1.52	-0.000525927
124	674	1.62	-0.000484331
124	715	1.72	-0.000440999
124	756	1.82	-0.000396637
124	797	1.92	-0.000351847
124	869	2.02	-0.000307144
124	910	2.12	-0.000262964
124	951	2.22	-0.000219674
125	28	0.12	25.91
125	69	0.22	25.91
125	110	0.32	25.91
125	151	0.42	25.91
125	192	0.52	25.9099
125	233	0.62	25.9099
125	274	0.72	25.9099
125	315	0.82	25.9098
125	356	0.92	25.9098
125	428	1.02	25.9097
125	469	1.12	25.9097
125	510	1.22	25.9096
125	551	1.32	25.9096
125	592	1.42	25.9095
125	633	1.52	25.9095
125	674	1.62	25.9094
125	715	1.72	25.9094
125	756	1.82	25.9093
125	797	1.92	25.9093
125	869	2.02	25.9092
125	910	2.12	25.9092
125	951	2.22	25.9091
126	28	0.12	46.5769
126	69	0.22	44.9076
126	110	0.32	43.2383
126	151	0.42	41.569
126	192	0.52	39.8998
126	233	0.62	38.4783
126	274	0.72	37.1353
126	315	0.82	35.7923
126	356	0.92	34.4493
126	428	1.02	33.1063
126	469	1.12	31.7633
126	510	1.22	30.4203
126	551	1.32	29.0773
126	592	1.42	27.7343
126	633	1.52	26.3913
126	674	1.62	25.0483
126	715	1.72	23.7053
126	756	1.82	22.5947
126	797	1.92	21.6113
126	869	2.02	20.6279
126	910	2.12	19.6445
126	951	2.22	18.6611
127	28	0.12	75.0962
127	69	0.22	77.0505
127	110	0.32	79.0049
127	151	0.42	80.9592
127	192	0.52	82.9135
127	233	0.62	85.0479
127	274	0.72	87.2393
127	315	0.82	89.4307
127	356	0.92	91.6221
127	428	1.02	93.8135
127	469	1.12	96.0049
127	510	1.22	98.1962
127	551	1.32	100.388
127	592	1.42	102.579
127	633	1.52	104.77
127	674	1.62	106.962
127	715	1.72	109.153
127	756	1.82	111.463
127	797	1.92	113.837
127	869	2.02	116.212
127	910	2.12	118.586
127	951	2.22	120.961
128	29	0.12	14.96
128	70	0.22	14.96
128	111	0.32	14.96
128	152	0.42	14.96
128	193	0.52	14.96
128	234	0.62	14.96
128	275	0.72	14.96
128	316	0.82	14.9599
128	357	0.92	14.9599
128	429	1.02	14.9599
128	470	1.12	14.9598
128	511	1.22	14.9598
128	552	1.32	14.9597
128	593	1.42	14.9597
128	634	1.52	14.9596
128	675	1.62	14.9595
128	716	1.72	14.9594
128	757	1.82	14.9593
128	798	1.92	14.9592
128	870	2.02	14.9591
128	911	2.12	14.959
128	952	2.22	14.9589
129	29	0.12	-1.17114e-06
129	70	0.22	-8.33948e-06
129	111	0.32	-2.49224e-05
129	152	0.42	-5.23112e-05
129	193	0.52	-9.0531e-05
129	234	0.62	-0.000138727
129	275	0.72	-0.000195518
129	316	0.82	-0.000259246
129	357	0.92	-0.00032816
129	429	1.02	-0.000400527
129	470	1.12	-0.000474716
129	511	1.22	-0.000549247
129	552	1.32	-0.000622812
129	593	1.42	-0.000694287
129	634	1.52	-0.000762734
129	675	1.62	-0.000827389
129	716	1.72	-0.000887652
129	757	1.82	-0.000943072
129	798	1.92	-0.000993333
129	870	2.02	-0.00103823
129	911	2.12	-0.00107767
129	952	2.22	-0.00111163
130	29	0.12	23
130	70	0.22	23
130	111	0.32	23
130	152	0.42	23
130	193	0.52	23
130	234	0.62	23
130	275	0.72	23
130	316	0.82	23
130	357	0.92	23
130	429	1.02	23
130	470	1.12	23
130	511	1.22	23
130	552	1.32	23
130	593	1.42	23
130	634	1.52	23
130	675	1.62	23
130	716	1.72	23
130	757	1.82	23
130	798	1.92	23
130	870	2.02	23
130	911	2.12	23
130	952	2.22	23
131	29	0.12	1.50129e-05
131	70	0.22	5.16611e-05
131	111	0.32	9.60918e-05
131	152	0.42	0.000139474
131	193	0.52	0.000176558
131	234	0.62	0.000204604
131	275	0.72	0.000222577
131	316	0.82	0.00023057
131	357	0.92	0.000229374
131	429	1.02	0.000220179
131	470	1.12	0.000204361
131	511	1.22	0.000183338
131	552	1.32	0.000158478
131	593	1.42	0.000131039
131	634	1.52	0.000102136
131	675	1.62	7.27288e-05
131	716	1.72	4.36202e-05
131	757	1.82	1.54606e-05
131	798	1.92	-1.12398e-05
131	870	2.02	-3.60971e-05
131	911	2.12	-5.88384e-05
131	952	2.22	-7.92863e-05
132	29	0.12	0.000152827
132	70	0.22	0.000261601
132	111	0.32	0.000321563
132	152	0.42	0.00034541
132	193	0.52	0.000343123
132	234	0.62	0.000322498
132	275	0.72	0.000289579
132	316	0.82	0.000249009
132	357	0.92	0.000204313
132	429	1.02	0.000158131
132	470	1.12	0.000112397
132	511	1.22	6.8499e-05
132	552	1.32	2.73892e-05
132	593	1.42	-1.03124e-05
132	634	1.52	-4.42432e-05
132	675	1.62	-7.42353e-05
132	716	1.72	-0.000100267
132	757	1.82	-0.000122423
132	798	1.92	-0.000140866
132	870	2.02	-0.000155808
132	911	2.12	-0.000167497
132	952	2.22	-0.0001762
133	29	0.12	25.91
133	70	0.22	25.91
133	111	0.32	25.91
133	152	0.42	25.91
133	193	0.52	25.91
133	234	0.62	25.9101
133	275	0.72	25.9101
133	316	0.82	25.9101
133	357	0.92	25.9101
133	429	1.02	25.9101
133	470	1.12	25.9102
133	511	1.22	25.9102
133	552	1.32	25.9102
133	593	1.42	25.9102
133	634	1.52	25.9102
133	675	1.62	25.9102
133	716	1.72	25.9102
133	757	1.82	25.9102
133	798	1.92	25.9102
133	870	2.02	25.9102
133	911	2.12	25.9102
133	952	2.22	25.9102
134	29	0.12	58.7922
134	70	0.22	57.1229
134	111	0.32	55.4536
134	152	0.42	53.7843
134	193	0.52	52.115
134	234	0.62	50.4457
134	275	0.72	48.7764
134	316	0.82	47.1071
134	357	0.92	45.4378
134	429	1.02	43.7685
134	470	1.12	42.0992
134	511	1.22	40.4299
134	552	1.32	38.9048
134	593	1.42	37.5618
134	634	1.52	36.2188
134	675	1.62	34.8757
134	716	1.72	33.5327
134	757	1.82	32.1897
134	798	1.92	30.8467
134	870	2.02	29.5036
134	911	2.12	28.1606
134	952	2.22	26.8176
135	29	0.12	60.7951
135	70	0.22	62.7494
135	111	0.32	64.7038
135	152	0.42	66.6581
135	193	0.52	68.6124
135	234	0.62	70.5668
135	275	0.72	72.5211
135	316	0.82	74.4754
135	357	0.92	76.4298
135	429	1.02	78.3841
135	470	1.12	80.3385
135	511	1.22	82.2928
135	552	1.32	84.3519
135	593	1.42	86.5434
135	634	1.52	88.7348
135	675	1.62	90.9262
135	716	1.72	93.1176
135	757	1.82	95.3091
135	798	1.92	97.5005
135	870	2.02	99.6919
135	911	2.12	101.883
135	952	2.22	104.075
136	30	0.12	27.7873
136	71	0.22	28.0843
136	112	0.32	28.3813
136	153	0.42	28.6783
136	194	0.52	28.9753
136	235	0.62	29.2723
136	276	0.72	29.5693
136	317	0.82	29.8663
136	358	0.92	30.1633
136	430	1.02	30.4604
136	471	1.12	30.7574
136	512	1.22	31.0544
136	553	1.32	31.3514
136	594	1.42	31.6484
136	635	1.52	31.9454
136	676	1.62	32.2425
136	717	1.72	32.5395
136	758	1.82	32.8365
136	799	1.92	33.1335
136	871	2.02	33.4306
136	912	2.12	33.7276
136	953	2.22	34.0246
137	30	0.12	2.97
137	71	0.22	2.97
137	112	0.32	2.97001
137	153	0.42	2.97002
137	194	0.52	2.97004
137	235	0.62	2.97006
137	276	0.72	2.97008
137	317	0.82	2.9701
137	358	0.92	2.97013
137	430	1.02	2.97015
137	471	1.12	2.97017
137	512	1.22	2.97019
137	553	1.32	2.97021
137	594	1.42	2.97022
137	635	1.52	2.97023
137	676	1.62	2.97024
137	717	1.72	2.97025
137	758	1.82	2.97025
137	799	1.92	2.97025
137	871	2.02	2.97025
137	912	2.12	2.97024
137	953	2.22	2.97023
138	30	0.12	24
138	71	0.22	24
138	112	0.32	24
138	153	0.42	24
138	194	0.52	24
138	235	0.62	24
138	276	0.72	24
138	317	0.82	24
138	358	0.92	24
138	430	1.02	24
138	471	1.12	24
138	512	1.22	24
138	553	1.32	24
138	594	1.42	24
138	635	1.52	24
138	676	1.62	24
138	717	1.72	24
138	758	1.82	24
138	799	1.92	24
138	871	2.02	24
138	912	2.12	24
138	953	2.22	24
139	30	0.12	0
139	71	0.22	0
139	112	0.32	0
139	153	0.42	0
139	194	0.52	0
139	235	0.62	0
139	276	0.72	0
139	317	0.82	0
139	358	0.92	0
139	430	1.02	0
139	471	1.12	0
139	512	1.22	0
139	553	1.32	0
139	594	1.42	0
139	635	1.52	0
139	676	1.62	0
139	717	1.72	0
139	758	1.82	0
139	799	1.92	0
139	871	2.02	0
139	912	2.12	0
139	953	2.22	0
140	30	0.12	0
140	71	0.22	0
140	112	0.32	0
140	153	0.42	0
140	194	0.52	0
140	235	0.62	0
140	276	0.72	0
140	317	0.82	0
140	358	0.92	0
140	430	1.02	0
140	471	1.12	0
140	512	1.22	0
140	553	1.32	0
140	594	1.42	0
140	635	1.52	0
140	676	1.62	0
140	717	1.72	0
140	758	1.82	0
140	799	1.92	0
140	871	2.02	0
140	912	2.12	0
140	953	2.22	0
[...]
209	562	1.32	0.000412601
209	603	1.42	0.000441311
209	644	1.52	0.000464355
209	685	1.62	0.000481549
209	726	1.72	0.000492882
209	767	1.82	0.000498488
209	808	1.92	0.000498616
209	880	2.02	0.000493601
209	921	2.12	0.000483843
209	962	2.22	0.000469787
210	39	0.12	5
210	80	0.22	5
210	121	0.32	5
210	162	0.42	5
210	203	0.52	5
210	244	0.62	5
210	285	0.72	5
210	326	0.82	5
210	367	0.92	5
210	439	1.02	5
210	480	1.12	5
210	521	1.22	5
210	562	1.32	5
210	603	1.42	5
210	644	1.52	5
210	685	1.62	5
210	726	1.72	5
210	767	1.82	5
210	808	1.92	5
210	880	2.02	5
210	921	2.12	5
210	962	2.22	5
211	39	0.12	1.69478e-06
211	80	0.22	1.3856e-05
211	121	0.32	4.24667e-05
211	162	0.42	8.89285e-05
211	203	0.52	0.000151792
211	244	0.62	0.000227985
211	285	0.72	0.000313661
211	326	0.82	0.000404774
211	367	0.92	0.000497447
211	439	1.02	0.000588196
211	480	1.12	0.000674049
211	521	1.22	0.000752598
211	562	1.32	0.000821993
211	603	1.42	0.000880913
211	644	1.52	0.000928518
211	685	1.62	0.00096439
211	726	1.72	0.000988465
211	767	1.82	0.00100098
211	808	1.92	0.0010024
211	880	2.02	0.000993385
211	921	2.12	0.000974721
211	962	2.22	0.000947291
212	39	0.12	2.62193e-05
212	80	0.22	0.000108868
212	121	0.32	0.000225886
212	162	0.42	0.000360142
212	203	0.52	0.000499055
212	244	0.62	0.000633614
212	285	0.72	0.000757594
212	326	0.82	0.000866919
212	367	0.92	0.000959168
212	439	1.02	0.00103316
212	480	1.12	0.00108865
212	521	1.22	0.00112606
212	562	1.32	0.00114629
212	603	1.42	0.00115057
212	644	1.52	0.00114034
212	685	1.62	0.00111713
212	726	1.72	0.00108253
212	767	1.82	0.00103812
212	808	1.92	0.000985425
212	880	2.02	0.000925903
212	921	2.12	0.000860922
212	962	2.22	0.000791746
213	39	0.12	32.14
213	80	0.22	32.14
213	121	0.32	32.14
213	162	0.42	32.14
213	203	0.52	32.14
213	244	0.62	32.14
213	285	0.72	32.1401
213	326	0.82	32.1401
213	367	0.92	32.1402
213	439	1.02	32.1402
213	480	1.12	32.1403
213	521	1.22	32.1403
213	562	1.32	32.1404
213	603	1.42	32.1405
213	644	1.52	32.1406
213	685	1.62	32.1407
213	726	1.72	32.1408
213	767	1.82	32.1409
213	808	1.92	32.141
213	880	2.02	32.1411
213	921	2.12	32.1412
213	962	2.22	32.1413
214	39	0.12	99.1691
214	80	0.22	96.5388
214	121	0.32	93.9084
214	162	0.42	91.2781
214	203	0.52	88.6477
214	244	0.62	86.1406
214	285	0.72	83.7948
214	326	0.82	81.449
214	367	0.92	79.1032
214	439	1.02	76.7574
214	480	1.12	74.4116
214	521	1.22	72.0658
214	562	1.32	69.7199
214	603	1.42	67.3741
214	644	1.52	65.0283
214	685	1.62	62.9117
214	726	1.72	60.908
214	767	1.82	58.9043
214	808	1.92	56.9005
214	880	2.02	54.8968
214	921	2.12	52.8931
214	962	2.22	50.8893
215	39	0.12	37.3303
215	80	0.22	38.9423
215	121	0.32	40.5544
215	162	0.42	42.1664
215	203	0.52	43.7784
215	244	0.62	45.5602
215	285	0.72	47.5638
215	326	0.82	49.5675
215	367	0.92	51.5712
215	439	1.02	53.5748
215	480	1.12	55.5785
215	521	1.22	57.5822
215	562	1.32	59.5859
215	603	1.42	61.5896
215	644	1.52	63.5933
215	685	1.62	65.8262
215	726	1.72	68.1721
215	767	1.82	70.518
215	808	1.92	72.8638
215	880	2.02	75.2097
215	921	2.12	77.5556
215	962	2.22	79.9015
216	40	0.12	30.1431
216	81	0.22	30.9021
216	122	0.32	31.6611
216	163	0.42	32.4201
216	204	0.52	33.1791
216	245	0.62	33.9381
216	286	0.72	34.6971
216	327	0.82	35.4561
216	368	0.92	36.2151
216	440	1.02	36.9742
216	481	1.12	37.7332
216	522	1.22	38.4922
216	563	1.32	39.2512
216	604	1.42	40.0103
216	645	1.52	40.7693
216	686	1.62	41.5284
216	727	1.72	42.2875
216	768	1.82	43.0466
216	809	1.92	43.8057
216	881	2.02	44.5648
216	922	2.12	45.3239
216	963	2.22	46.083
217	40	0.12	7.59
217	81	0.22	7.59
217	122	0.32	7.59
217	163	0.42	7.59001
217	204	0.52	7.59002
217	245	0.62	7.59004
217	286	0.72	7.59007
217	327	0.82	7.59011
217	368	0.92	7.59015
217	440	1.02	7.59021
217	481	1.12	7.59027
217	522	1.22	7.59034
217	563	1.32	7.59042
217	604	1.42	7.59051
217	645	1.52	7.5906
217	686	1.62	7.59069
217	727	1.72	7.59079
217	768	1.82	7.59089
217	809	1.92	7.59099
217	881	2.02	7.59109
217	922	2.12	7.59119
217	963	2.22	7.59128
218	40	0.12	6
218	81	0.22	6
218	122	0.32	6
218	163	0.42	6
218	204	0.52	6
218	245	0.62	6
218	286	0.72	6
218	327	0.82	6
218	368	0.92	6
218	440	1.02	6
218	481	1.12	6
218	522	1.22	6
218	563	1.32	6
218	604	1.42	6
218	645	1.52	6
218	686	1.62	6
218	727	1.72	6
218	768	1.82	6
218	809	1.92	6
218	881	2.02	6
218	922	2.12	6
218	963	2.22	6
219	40	0.12	0
219	81	0.22	0
219	122	0.32	0
219	163	0.42	0
219	204	0.52	0
219	245	0.62	0
219	286	0.72	0
219	327	0.82	0
219	368	0.92	0
219	440	1.02	0
219	481	1.12	0
219	522	1.22	0
219	563	1.32	0
219	604	1.42	0
219	645	1.52	0
219	686	1.62	0
219	727	1.72	0
219	768	1.82	0
219	809	1.92	0
219	881	2.02	0
219	922	2.12	0
219	963	2.22	0
220	40	0.12	0
220	81	0.22	0
220	122	0.32	0
220	163	0.42	0
220	204	0.52	0
220	245	0.62	0
220	286	0.72	0
220	327	0.82	0
220	368	0.92	0
220	440	1.02	0
220	481	1.12	0
220	522	1.22	0
220	563	1.32	0
220	604	1.42	0
220	645	1.52	0
220	686	1.62	0
220	727	1.72	0
220	768	1.82	0
220	809	1.92	0
220	881	2.02	0
220	922	2.12	0
220	963	2.22	0
221	40	0.12	24.55
221	81	0.22	24.55
221	122	0.32	24.55
221	163	0.42	24.55
221	204	0.52	24.55
221	245	0.62	24.55
221	286	0.72	24.55
221	327	0.82	24.55
221	368	0.92	24.55
221	440	1.02	24.55
221	481	1.12	24.55
221	522	1.22	24.55
221	563	1.32	24.55
221	604	1.42	24.55
221	645	1.52	24.55
221	686	1.62	24.55
221	727	1.72	24.55
221	768	1.82	24.55
221	809	1.92	24.55
221	881	2.02	24.55
221	922	2.12	24.55
221	963	2.22	24.55
222	40	0.12	128.305
222	81	0.22	126.128
222	122	0.32	123.951
222	163	0.42	121.774
222	204	0.52	119.596
222	245	0.62	117.419
222	286	0.72	115.242
222	327	0.82	113.065
222	368	0.92	111.039
222	440	1.02	109.029
222	481	1.12	107.02
222	522	1.22	105.011
222	563	1.32	103.002
222	604	1.42	100.993
222	645	1.52	98.9834
222	686	1.62	96.9743
222	727	1.72	94.9651
222	768	1.82	92.9559
222	809	1.92	90.9467
222	881	2.02	88.9375
222	922	2.12	86.9531
222	963	2.22	85.1612
223	40	0.12	22.5468
223	81	0.22	23.4484
223	122	0.32	24.3501
223	163	0.42	25.2517
223	204	0.52	26.1534
223	245	0.62	27.055
223	286	0.72	27.9567
223	327	0.82	28.8583
223	368	0.92	30.0561
223	440	1.02	31.2874
223	481	1.12	32.5187
223	522	1.22	33.7501
223	563	1.32	34.9814
223	604	1.42	36.2128
223	645	1.52	37.4441
223	686	1.62	38.6755
223	727	1.72	39.9068
223	768	1.82	41.1381
223	809	1.92	42.3695
223	881	2.02	43.6008
223	922	2.12	44.8662
223	963	2.22	46.3967
224	41	0.12	14.27
224	82	0.22	14.27
224	123	0.32	14.27
224	164	0.42	14.27
224	205	0.52	14.27
224	246	0.62	14.27
224	287	0.72	14.27
224	328	0.82	14.27
224	369	0.92	14.2701
224	441	1.02	14.2701
224	482	1.12	14.2701
224	523	1.22	14.2701
224	564	1.32	14.2702
224	605	1.42	14.2702
224	646	1.52	14.2703
224	687	1.62	14.2703
224	728	1.72	14.2704
224	769	1.82	14.2705
224	810	1.92	14.2705
224	882	2.02	14.2706
224	923	2.12	14.2707
224	964	2.22	14.2708
225	41	0.12	5.9747e-07
225	82	0.22	4.36134e-06
225	123	0.32	1.33559e-05
225	164	0.42	2.87146e-05
225	205	0.52	5.0881e-05
225	246	0.62	7.97978e-05
225	287	0.72	0.000115055
225	328	0.82	0.000156007
225	369	0.92	0.000201858
225	441	1.02	0.000251733
225	482	1.12	0.000304726
225	523	1.22	0.000359939
225	564	1.32	0.000416511
225	605	1.42	0.000473632
225	646	1.52	0.000530556
225	687	1.62	0.000586614
225	728	1.72	0.000641211
225	769	1.82	0.000693828
225	810	1.92	0.000744025
225	882	2.02	0.000791431
225	923	2.12	0.000835746
225	964	2.22	0.000876734
226	41	0.12	7
226	82	0.22	7
226	123	0.32	7
226	164	0.42	7
226	205	0.52	7
226	246	0.62	7
226	287	0.72	7
226	328	0.82	7
226	369	0.92	7
226	441	1.02	7
226	482	1.12	7
226	523	1.22	7
226	564	1.32	7
226	605	1.42	7
226	646	1.52	7
226	687	1.62	7
226	728	1.72	7
226	769	1.82	7
226	810	1.92	7
226	882	2.02	7
226	923	2.12	7
226	964	2.22	7
227	41	0.12	-1.58603e-05
227	82	0.22	-5.8589e-05
227	123	0.32	-0.000117325
227	164	0.42	-0.000183938
227	205	0.52	-0.000252455
227	246	0.62	-0.000318596
227	287	0.72	-0.000379408
227	328	0.82	-0.000432957
227	369	0.92	-0.000478098
227	441	1.02	-0.000514277
227	482	1.12	-0.000541386
227	523	1.22	-0.000559637
227	564	1.32	-0.000569475
227	605	1.42	-0.000571495
227	646	1.52	-0.000566395
227	687	1.62	-0.000554924
227	728	1.72	-0.000537853
227	769	1.82	-0.00051595
227	810	1.92	-0.00048996
227	882	2.02	-0.000460595
227	923	2.12	-0.000428522
227	964	2.22	-0.000394359
228	41	0.12	-0.000165937
228	82	0.22	-0.000316035
228	123	0.32	-0.000434506
228	164	0.42	-0.000525481
228	205	0.52	-0.000592651
228	246	0.62	-0.000639305
228	287	0.72	-0.000668376
228	328	0.82	-0.000682469
228	369	0.92	-0.000683897
228	441	1.02	-0.000674711
228	482	1.12	-0.000656721
228	523	1.22	-0.000631527
228	564	1.32	-0.000600534
228	605	1.42	-0.000564975
228	646	1.52	-0.000525927
228	687	1.62	-0.000484331
228	728	1.72	-0.000440999
228	769	1.82	-0.000396637
228	810	1.92	-0.000351847
228	882	2.02	-0.000307144
228	923	2.12	-0.000262964
228	964	2.22	-0.000219674
229	41	0.12	24.55
229	82	0.22	24.55
229	123	0.32	24.55
229	164	0.42	24.55
229	205	0.52	24.5499
229	246	0.62	24.5499
229	287	0.72	24.5499
229	328	0.82	24.5498
229	369	0.92	24.5498
229	441	1.02	24.5497
229	482	1.12	24.5497
229	523	1.22	24.5496
229	564	1.32	24.5496
229	605	1.42	24.5495
229	646	1.52	24.5495
229	687	1.62	24.5494
229	728	1.72	24.5494
229	769	1.82	24.5493
229	810	1.92	24.5493
229	882	2.02	24.5492
229	923	2.12	24.5492
229	964	2.22	24.5491
230	41	0.12	144.708
230	82	0.22	142.417
230	123	0.32	140.153
230	164	0.42	137.976
230	205	0.52	135.799
230	246	0.62	133.622
230	287	0.72	131.444
230	328	0.82	129.267
230	369	0.92	127.09
230	441	1.02	124.913
230	482	1.12	122.736
230	523	1.22	120.559
230	564	1.32	118.382
230	605	1.42	116.204
230	646	1.52	114.027
230	687	1.62	111.927
230	728	1.72	109.918
230	769	1.82	107.909
230	810	1.92	105.899
230	882	2.02	103.89
230	923	2.12	101.881
230	964	2.22	99.872
231	41	0.12	16.4541
231	82	0.22	17.0046
231	123	0.32	17.64
231	164	0.42	18.5417
231	205	0.52	19.4433
231	246	0.62	20.345
231	287	0.72	21.2466
231	328	0.82	22.1483
231	369	0.92	23.0499
231	441	1.02	23.9515
231	482	1.12	24.8532
231	523	1.22	25.7548
231	564	1.32	26.6565
231	605	1.42	27.5581
231	646	1.52	28.4597
231	687	1.62	29.5117
231	728	1.72	30.743
231	769	1.82	31.9743
231	810	1.92	33.2056
231	882	2.02	34.4369
231	923	2.12	35.6682
231	964	2.22	36.8995
232	42	0.12	14.28
232	83	0.22	14.28
232	124	0.32	14.28
232	165	0.42	14.28
232	206	0.52	14.28
232	247	0.62	14.28
232	288	0.72	14.28
232	329	0.82	14.2799
232	370	0.92	14.2799
232	442	1.02	14.2799
232	483	1.12	14.2798
232	524	1.22	14.2798
232	565	1.32	14.2797
232	606	1.42	14.2797
232	647	1.52	14.2796
232	688	1.62	14.2795
232	729	1.72	14.2794
232	770	1.82	14.2793
232	811	1.92	14.2792
232	883	2.02	14.2791
232	924	2.12	14.279
232	965	2.22	14.2789
233	42	0.12	-1.17114e-06
233	83	0.22	-8.33948e-06
233	124	0.32	-2.49224e-05
233	165	0.42	-5.23112e-05
233	206	0.52	-9.0531e-05
233	247	0.62	-0.000138727
233	288	0.72	-0.000195518
233	329	0.82	-0.000259246
233	370	0.92	-0.00032816
233	442	1.02	-0.000400527
233	483	1.12	-0.000474716
233	524	1.22	-0.000549247
233	565	1.32	-0.000622812
233	606	1.42	-0.000694287
233	647	1.52	-0.000762734
233	688	1.62	-0.000827389
233	729	1.72	-0.000887652
233	770	1.82	-0.000943072
233	811	1.92	-0.000993333
233	883	2.02	-0.00103823
233	924	2.12	-0.00107767
233	965	2.22	-0.00111163
234	42	0.12	8
234	83	0.22	8
234	124	0.32	8
234	165	0.42	8
234	206	0.52	8
234	247	0.62	8
234	288	0.72	8
234	329	0.82	8
234	370	0.92	8
234	442	1.02	8
234	483	1.12	8
234	524	1.22	8
234	565	1.32	8
234	606	1.42	8
234	647	1.52	8
234	688	1.62	8
234	729	1.72	8
234	770	1.82	8
234	811	1.92	8
234	883	2.02	8
234	924	2.12	8
234	965	2.22	8
235	42	0.12	1.50129e-05
235	83	0.22	5.16611e-05
235	124	0.32	9.60918e-05
235	165	0.42	0.000139474
235	206	0.52	0.000176558
235	247	0.62	0.000204604
235	288	0.72	0.000222577
235	329	0.82	0.00023057
235	370	0.92	0.000229374
235	442	1.02	0.000220179
235	483	1.12	0.000204361
235	524	1.22	0.000183338
235	565	1.32	0.000158478
235	606	1.42	0.000131039
235	647	1.52	0.000102136
235	688	1.62	7.27288e-05
235	729	1.72	4.36202e-05
235	770	1.82	1.54606e-05
235	811	1.92	-1.12398e-05
235	883	2.02	-3.60971e-05
235	924	2.12	-5.88384e-05
235	965	2.22	-7.92863e-05
236	42	0.12	0.000152827
236	83	0.22	0.000261601
236	124	0.32	0.000321563
236	165	0.42	0.00034541
236	206	0.52	0.000343123
236	247	0.62	0.000322498
236	288	0.72	0.000289579
236	329	0.82	0.000249009
236	370	0.92	0.000204313
236	442	1.02	0.000158131
236	483	1.12	0.000112397
236	524	1.22	6.8499e-05
236	565	1.32	2.73892e-05
236	606	1.42	-1.03124e-05
236	647	1.52	-4.42432e-05
236	688	1.62	-7.42353e-05
236	729	1.72	-0.000100267
236	770	1.82	-0.000122423
236	811	1.92	-0.000140866
236	883	2.02	-0.000155808
236	924	2.12	-0.000167497
236	965	2.22	-0.0001762
237	42	0.12	24.55
237	83	0.22	24.55
237	124	0.32	24.55
237	165	0.42	24.55
237	206	0.52	24.55
237	247	0.62	24.5501
237	288	0.72	24.5501
237	329	0.82	24.5501
237	370	0.92	24.5501
237	442	1.02	24.5501
237	483	1.12	24.5502
237	524	1.22	24.5502
237	565	1.32	24.5502
237	606	1.42	24.5502
237	647	1.52	24.5502
237	688	1.62	24.5502
237	729	1.72	24.5502
237	770	1.82	24.5502
237	811	1.92	24.5502
237	883	2.02	24.5502
237	924	2.12	24.5502
237	965	2.22	24.5502
238	42	0.12	161.769
238	83	0.22	159.478
238	124	0.32	157.187
238	165	0.42	154.895
238	206	0.52	152.604
238	247	0.62	150.313
238	288	0.72	148.021
238	329	0.82	145.73
238	370	0.92	143.439
238	442	1.02	141.147
238	483	1.12	138.947
238	524	1.22	136.77
238	565	1.32	134.593
238	606	1.42	132.415
238	647	1.52	130.238
238	688	1.62	128.061
238	729	1.72	125.884
238	770	1.82	123.707
238	811	1.92	121.529
238	883	2.02	119.352
238	924	2.12	117.175
238	965	2.22	114.998
239	42	0.12	12.3552
239	83	0.22	12.9057
239	124	0.32	13.4561
239	165	0.42	14.0066
239	206	0.52	14.5571
239	247	0.62	15.1076
239	288	0.72	15.6581
239	329	0.82	16.2085
239	370	0.92	16.759
239	442	1.02	17.3095
239	483	1.12	18.1395
239	524	1.22	19.0412
239	565	1.32	19.9429
239	606	1.42	20.8445
239	647	1.52	21.7462
239	688	1.62	22.6478
239	729	1.72	23.5495
239	770	1.82	24.4511
239	811	1.92	25.3528
239	883	2.02	26.2545
239	924	2.12	27.1561
239	965	2.22	28.0578
240	43	0.12	14.27
240	84	0.22	14.27
240	125	0.32	14.27
240	166	0.42	14.27
240	207	0.52	14.27
240	248	0.62	14.27
240	289	0.72	14.27
240	330	0.82	14.2701
240	371	0.92	14.2701
240	443	1.02	14.2701
240	484	1.12	14.2701
240	525	1.22	14.2702
240	566	1.32	14.2702
240	607	1.42	14.2703
240	648	1.52	14.2703
240	689	1.62	14.2704
240	730	1.72	14.2705
240	771	1.82	14.2706
240	812	1.92	14.2706
240	884	2.02	14.2707
240	925	2.12	14.2708
240	966	2.22	14.2709
241	43	0.12	1.148e-06
241	84	0.22	7.98209e-06
241	125	0.32	2.33219e-05
241	166	0.42	4.79232e-05
241	207	0.52	8.13075e-05
241	248	0.62	0.000122321
241	289	0.72	0.000169501
241	330	0.82	0.000221308
241	371	0.92	0.000276266
241	443	1.02	0.000333038
241	484	1.12	0.000390464
241	525	1.22	0.000447564
241	566	1.32	0.00050354
241	607	1.42	0.000557753
241	648	1.52	0.000609706
241	689	1.62	0.000659026
241	730	1.72	0.000705441
241	771	1.82	0.000748761
241	812	1.92	0.000788864
241	884	2.02	0.000825684
241	925	2.12	0.000859194
241	966	2.22	0.000889404
242	43	0.12	9
242	84	0.22	9
242	125	0.32	9
242	166	0.42	9
242	207	0.52	9
242	248	0.62	9
242	289	0.72	9
242	330	0.82	9
242	371	0.92	9
242	443	1.02	9
242	484	1.12	9
242	525	1.22	9
242	566	1.32	9
242	607	1.42	9
242	648	1.52	9
242	689	1.62	9
242	730	1.72	9
242	771	1.82	9
242	812	1.92	9
242	884	2.02	9
242	925	2.12	9
242	966	2.22	9
243	43	0.12	-1.50428e-05
243	84	0.22	-5.22494e-05
243	125	0.32	-9.89272e-05
243	166	0.42	-0.00014753
243	207	0.52	-0.000193857
243	248	0.62	-0.000235811
243	289	0.72	-0.000272568
243	330	0.82	-0.000304024
243	371	0.92	-0.000330447
243	443	1.02	-0.000352256
243	484	1.12	-0.000369901
243	525	1.22	-0.000383793
243	566	1.32	-0.000394279
243	607	1.42	-0.000401637
243	648	1.52	-0.000406082
243	689	1.62	-0.000407777
243	730	1.72	-0.000406853
243	771	1.82	-0.000403418
243	812	1.92	-0.000397572
243	884	2.02	-0.000389415
243	925	2.12	-0.000379055
243	966	2.22	-0.000366611
244	43	0.12	-0.000153441
244	84	0.22	-0.000267692
244	125	0.32	-0.000341318
244	166	0.42	-0.000387899
244	207	0.52	-0.000416772
244	248	0.62	-0.000434213
244	289	0.72	-0.000444321
244	330	0.82	-0.000449674
244	371	0.92	-0.000451808
244	443	1.02	-0.000451569
244	484	1.12	-0.000449364
244	525	1.22	-0.000445331
244	566	1.32	-0.00043947
244	607	1.42	-0.000431717
244	648	1.52	-0.000421998
244	689	1.62	-0.000410263
244	730	1.72	-0.000396498
244	771	1.82	-0.000380737
244	812	1.92	-0.000363057
244	884	2.02	-0.000343581
244	925	2.12	-0.000322463
244	966	2.22	-0.000299889
245	43	0.12	24.55
245	84	0.22	24.55
245	125	0.32	24.55
245	166	0.42	24.55
245	207	0.52	24.55
245	248	0.62	24.5499
245	289	0.72	24.5499
245	330	0.82	24.5499
245	371	0.92	24.5499
245	443	1.02	24.5498
245	484	1.12	24.5498
245	525	1.22	24.5497
245	566	1.32	24.5497
245	607	1.42	24.5497
245	648	1.52	24.5496
245	689	1.62	24.5496
245	730	1.72	24.5495
245	771	1.82	24.5495
245	812	1.92	24.5495
245	884	2.02	24.5494
245	925	2.12	24.5494
245	966	2.22	24.5493
246	43	0.12	179.045
246	84	0.22	176.696
246	125	0.32	174.346
246	166	0.42	171.997
246	207	0.52	169.656
246	248	0.62	167.364
246	289	0.72	165.073
246	330	0.82	162.782
246	371	0.92	160.491
246	443	1.02	158.199
246	484	1.12	155.908
246	525	1.22	153.617
246	566	1.32	151.325
246	607	1.42	149.034
246	648	1.52	146.743
246	689	1.62	144.452
246	730	1.72	142.16
246	771	1.82	139.91
246	812	1.92	137.732
246	884	2.02	135.555
246	925	2.12	133.378
246	966	2.22	131.201
247	43	0.12	9.67241
247	84	0.22	9.85705
247	125	0.32	10.0417
247	166	0.42	10.2263
247	207	0.52	10.4604
247	248	0.62	11.0109
247	289	0.72	11.5614
247	330	0.82	12.1119
247	371	0.92	12.6624
247	443	1.02	13.2128
247	484	1.12	13.7633
247	525	1.22	14.3138
247	566	1.32	14.8643
247	607	1.42	15.4147
247	648	1.52	15.9652
247	689	1.62	16.5157
247	730	1.72	17.0662
247	771	1.82	17.7409
247	812	1.92	18.6425
247	884	2.02	19.5442
247	925	2.12	20.4458
247	966	2.22	21.3474
248	380	1	0
248	821	2	0
249	380	1	0
249	821	2	0
250	380	1	0
250	821	2	0
251	381	1	1
251	822	2	1
252	381	1	0
252	822	2	0
253	381	1	0
253	822	2	0
254	382	1	10
254	823	2	10
255	382	1	0
255	823	2	0
256	382	1	0
256	823	2	0
257	383	1	11
257	824	2	11
258	383	1	0
258	824	2	0
259	383	1	0
259	824	2	0
260	384	1	12
260	825	2	12
261	384	1	0
261	825	2	0
262	384	1	0
262	825	2	0
263	385	1	13
263	826	2	13
264	385	1	0
264	826	2	0
265	385	1	0
265	826	2	0
266	386	1	14
266	827	2	14
267	386	1	0
267	827	2	0
268	386	1	0
268	827	2	0
269	387	1	15
269	828	2	15
270	387	1	0
270	828	2	0
271	387	1	0
271	828	2	0
272	388	1	16
272	829	2	16
273	388	1	0
273	829	2	0
274	388	1	0
274	829	2	0
275	389	1	17
275	830	2	17
276	389	1	0
276	830	2	0
277	389	1	0
277	830	2	0
278	390	1	18
278	831	2	18
279	390	1	0
279	831	2	0
280	390	1	0
280	831	2	0
281	391	1	19
281	832	2	19
282	391	1	0
282	832	2	0
283	391	1	0
283	832	2	0
284	392	1	2
284	833	2	2
285	392	1	0
285	833	2	0
286	392	1	0
286	833	2	0
287	393	1	20
287	834	2	20
288	393	1	0
288	834	2	0
289	393	1	0
289	834	2	0
290	394	1	21
290	835	2	21
291	394	1	0
291	835	2	0
292	394	1	0
292	835	2	0
293	395	1	22
293	836	2	22
294	395	1	0
294	836	2	0
295	395	1	0
295	836	2	0
296	396	1	23
296	837	2	23
297	396	1	0
297	837	2	0
298	396	1	0
298	837	2	0
299	397	1	24
299	838	2	24
300	397	1	0
300	838	2	0
301	397	1	0
301	838	2	0
302	398	1	25
302	839	2	25
303	398	1	0
303	839	2	0
304	398	1	0
304	839	2	0
305	399	1	26
305	840	2	26
306	399	1	0
306	840	2	0
307	399	1	0
307	840	2	0
308	400	1	27
308	841	2	27
309	400	1	0
309	841	2	0
310	400	1	0
310	841	2	0
311	401	1	28
311	842	2	28
312	401	1	0
312	842	2	0
313	401	1	0
313	842	2	0
314	402	1	29
314	843	2	29
315	402	1	0
315	843	2	0
316	402	1	0
316	843	2	0
317	403	1	3
317	844	2	3
318	403	1	0
318	844	2	0
319	403	1	0
319	844	2	0
320	404	1	30
320	845	2	30
321	404	1	0
321	845	2	0
322	404	1	0
322	845	2	0
323	405	1	4
323	846	2	4
324	405	1	0
324	846	2	0
325	405	1	0
325	846	2	0
326	406	1	5
326	847	2	5
327	406	1	0
327	847	2	0
328	406	1	0
328	847	2	0
329	407	1	6
329	848	2	6
330	407	1	0
330	848	2	0
331	407	1	0
331	848	2	0
332	408	1	7
332	849	2	7
333	408	1	0
333	849	2	0
334	408	1	0
334	849	2	0
335	409	1	8
335	850	2	8
336	409	1	0
336	850	2	0
337	409	1	0
337	850	2	0
338	410	1	9
338	851	2	9
339	410	1	0
339	851	2	0
340	410	1	0
340	851	2	0

