version 2
run SplittingManeuver-1-20211009-01:02:18-4160
attr configname SplittingManeuver
attr datetime 20211009-01:02:18
attr experiment SplittingManeuver
attr inifile omnetpp.ini
attr iterationvars "$nCars=4, $platoonSize=4, $nLanes=1, $caccXi=2, $caccOmegaN=1, $ploegH=0.5, $leaderHeadway=1.2, $leaderSpeed=100, $beaconInterval=0.1, $priority=2, $packetSize=200"
attr iterationvarsf nCars=4,platoonSize=4,nLanes=1,caccXi=2,caccOmegaN=1,ploegH=0.5,leaderHeadway=1.2,leaderSpeed=100,beaconInterval=0.1,priority=2,packetSize=200-
attr measurement "$nCars=4, $platoonSize=4, $nLanes=1, $caccXi=2, $caccOmegaN=1, $ploegH=0.5, $leaderHeadway=1.2, $leaderSpeed=100, $beaconInterval=0.1, $priority=2, $packetSize=200"
attr network Highway
attr processid 4160
attr repetition 0
attr replication #0
attr resultdir results
attr runnumber 1
attr seedset 0
itervar beaconInterval 0.1
itervar caccOmegaN 1
itervar caccXi 2
itervar leaderHeadway 1.2
itervar leaderSpeed 100
itervar nCars 4
itervar nLanes 1
itervar packetSize 200
itervar platoonSize 4
itervar ploegH 0.5
itervar priority 2
param *.manager.command "\"sumo-gui\""
param *.manager.ignoreGuiCommands false
param *.node[*].scenario_type "\"SplittingManeuverScenario\""
param *.node[*].scenario.leaderController "\"ACC\""
param *.node[*].scenario.followerController "\"CACC\""
param *.node[*].scenario.otherCarController "\"ACC\""
param *.node[*].scenario.desiredPlatoonSpeed 110
param *.node[*].scenario.desiredIntersectionPlatoonSpeed 90
param *.node[*].scenario.desiredOtherCarSpeed 130
param *.node[*].scenario.desiredIntersectionOtherCarSpeed 110
param *.node[*].scenario.meneuverTime 1
param *.node[*].appl.securityDistance 5
param *.node[*].appl.vehicleDestination "\"1,0,1,0\""
param *.playgroundSizeX 65000m
param *.playgroundSizeY 25000m
param *.playgroundSizeZ 50m
param *.annotations.draw false
param *.obstacles.debug false
param *.world.useTorus false
param *.world.use2D false
param *.manager.updateInterval 0.01s
param *.manager.host "\"localhost\""
param *.manager.moduleType "\"org.car2x.plexe.PlatoonCar\""
param *.manager.moduleName "\"node\""
param *.manager.moduleDisplayString "\"\""
param *.manager.autoShutdown true
param *.manager.margin 25
param *.rsu[0].mobility.x 20
param *.rsu[0].mobility.y 40
param *.rsu[0].mobility.z 1.895
param *.rsu[*].applType "\"AppRSU\""
param *.rsu[*].appl.headerLength "80 bit"
param *.rsu[*].appl.sendBeacons false
param *.rsu[*].appl.dataOnSch false
param *.rsu[*].appl.beaconInterval 1s
param *.rsu[*].appl.beaconUserPriority 7
param *.rsu[*].appl.dataUserPriority 5
param *.rsu[*].nic.phy80211p.antennaOffsetZ "0 m"
param *.rsu[*].appl.sendBeacons true
param *.rsu[*].appl.dataOnSch true
param *.connectionManager.sendDirect true
param *.connectionManager.maxInterfDist 2600m
param *.connectionManager.drawMaxIntfDist false
param *.**.nic.mac1609_4.useServiceChannel false
param *.**.nic.mac1609_4.txPower 20mW
param *.**.nic.mac1609_4.bitrate 6Mbps
param *.**.nic.mac1609_4.useAcks true
param *.**.nic.mac1609_4.ackErrorRate 0.0
param *.**.nic.mac1609_4.frameErrorRate 0.0
param *.**.nic.phy80211p.minPowerLevel -94dBm
param *.**.nic.phy80211p.maxTXPower 100mW
param *.**.nic.phy80211p.useNoiseFloor true
param *.**.nic.phy80211p.noiseFloor -95dBm
param *.**.nic.phy80211p.decider "xmldoc(\"config.xml\")"
param *.**.nic.phy80211p.analogueModels "xmldoc(\"config.xml\")"
param *.**.nic.phy80211p.usePropagationDelay true
param *.**.nic.phy80211p.antenna "xmldoc(\"antenna.xml\", \"/root/Antenna[@id='monopole']\")"
param *.rsu[*].nic.phy80211p.antennaOffsetY "0 m"
param *.rsu[*].nic.phy80211p.antennaOffsetZ "1.895 m"
param *.node[*].mobility.x 0
param *.node[*].mobility.y 0
param *.node[*].mobility.z 1.895
param **.seed 0
param *.manager.configFile "\"./sumocfg/freeway.sumo.cfg\""
param *.manager.launchConfig "xmldoc(\"./sumocfg/freeway.launchd.xml\")"
param **.numberOfCars 4
param **.numberOfCarsPerPlatoon 4
param **.numberOfLanes 1
param **.controllerXi 2
param **.controllerOmegaN 1
param *.node[*].helper_type "\"PositionHelper\""
param *.node[*].scenario.caccC1 0.5
param *.node[*].scenario.caccXi 2
param *.node[*].scenario.caccOmegaN "1 Hz"
param *.node[*].scenario.caccSpacing "5 m"
param *.node[*].scenario.engineTau "0.5 s"
param *.node[*].scenario.ploegH 0.5s
param *.node[*].scenario.ploegKp 0.2
param *.node[*].scenario.ploegKd 0.7
param *.node[*].scenario.useRealisticEngine false
param **.numericController 0
param *.node[*].scenario.controller "\"CACC\""
param *.node[*].scenario.accHeadway "0.1 s"
param *.node[*].scenario.leaderHeadway 1.2s
param *.node[*].scenario.leaderSpeed 100kmph
param *.node[*].appl_type "\"SplittingPlatooningApp\""
param *.node[*].appl.joinManeuver "\"JoinAtBack\""
param *.node[*].appl.mergeManeuver "\"MergeAtBack\""
param *.node[*].appl.splittingManeuver "\"Splitting\""
param *.node[*].protocol_type "\"SimplePlatooningBeaconing\""
param *.node[*].prot.beaconingInterval 0.1s
param *.node[*].prot.priority 2
param *.node[*].prot.packetSize 200
param **.traffic_type "\"PlatoonsTrafficManager\""
param **.traffic.platoonInsertTime "1 s"
param **.traffic.platoonInsertSpeed 100kmph
param **.traffic.nCars 4
param **.traffic.platoonSize 4
param **.traffic.nLanes 1
param **.traffic.platooningVType "\"vtypeauto\""
param **.traffic.platoonInsertDistance "5 m"
param **.traffic.platoonInsertHeadway "0 s"
param **.traffic.platoonLeaderHeadway 1.2s

vector 0 Highway.node[3].prot frontDelay ETV
vector 1 Highway.node[3].prot frontDelayId ETV
vector 2 Highway.node[2].prot frontDelay ETV
vector 3 Highway.node[2].prot frontDelayId ETV
vector 4 Highway.node[1].prot leaderDelay ETV
vector 5 Highway.node[1].prot leaderDelayId ETV
vector 6 Highway.node[1].prot frontDelay ETV
vector 7 Highway.node[1].prot frontDelayId ETV
vector 8 Highway.node[2].prot leaderDelay ETV
vector 9 Highway.node[2].prot leaderDelayId ETV
vector 10 Highway.node[3].prot leaderDelay ETV
vector 11 Highway.node[3].prot leaderDelayId ETV
vector 12 Highway.node[0].prot nodeId ETV
vector 13 Highway.node[0].prot busyTime ETV
vector 14 Highway.node[0].prot collisions ETV
vector 15 Highway.node[1].prot nodeId ETV
vector 16 Highway.node[1].prot busyTime ETV
vector 17 Highway.node[1].prot collisions ETV
vector 18 Highway.node[2].prot nodeId ETV
vector 19 Highway.node[2].prot busyTime ETV
vector 20 Highway.node[2].prot collisions ETV
vector 21 Highway.node[3].prot nodeId ETV
vector 22 Highway.node[3].prot busyTime ETV
vector 23 Highway.node[3].prot collisions ETV
0	788	1.213891645018	0.100001615398
0	958	1.313889822777	0.099998177759
0	1128	1.41388800059	0.099998177813
0	1298	1.51388617848	0.09999817789
0	1468	1.613884356459	0.099998177979
0	1638	1.713882534532	0.099998178073
0	1808	1.813880712693	0.099998178161
0	1978	1.913891890932	0.100011178239
0	2152	2.013890069235	0.099998178303
0	2322	2.113888247583	0.099998178348
0	2574	2.213879859338	0.099991611755
0	2744	2.313891037712	0.100011178374
0	2914	2.413889216069	0.099998178357
0	3084	2.513887394394	0.099998178325
0	3254	2.613885572671	0.099998178277
0	3424	2.713883750887	0.099998178216
0	3594	2.813881929032	0.099998178145
0	3764	2.9138801071	0.099998178068
0	3944	3.013891285087	0.100011177987
0	4114	3.113889462992	0.099998177905
0	4366	3.21388123222	0.099991769228
0	4536	3.31389240997	0.10001117775
0	4706	3.413890587655	0.099998177685
0	4876	3.51388876528	0.099998177625
0	5046	3.613886942857	0.099998177577
0	5216	3.713885120394	0.099998177537
0	5386	3.813883297903	0.099998177509
0	5556	3.913881475391	0.099998177488
0	5730	4.01389265287	0.100011177479
0	5900	4.113890830344	0.099998177474
1	788	1.213891645018	3
1	958	1.313889822777	3
1	1128	1.41388800059	3
1	1298	1.51388617848	3
1	1468	1.613884356459	3
1	1638	1.713882534532	3
1	1808	1.813880712693	3
1	1978	1.913891890932	3
1	2152	2.013890069235	3
1	2322	2.113888247583	3
1	2574	2.213879859338	3
1	2744	2.313891037712	3
1	2914	2.413889216069	3
1	3084	2.513887394394	3
1	3254	2.613885572671	3
1	3424	2.713883750887	3
1	3594	2.813881929032	3
1	3764	2.9138801071	3
1	3944	3.013891285087	3
1	4114	3.113889462992	3
1	4366	3.21388123222	3
1	4536	3.31389240997	3
1	4706	3.413890587655	3
1	4876	3.51388876528	3
1	5046	3.613886942857	3
1	5216	3.713885120394	3
1	5386	3.813883297903	3
1	5556	3.913881475391	3
1	5730	4.01389265287	3
1	5900	4.113890830344	3
2	829	1.22964167464	0.1000016154
2	999	1.329639852404	0.099998177764
2	1169	1.429638030226	0.099998177822
2	1339	1.529636208128	0.099998177902
2	1509	1.629647386122	0.100011177994
2	1679	1.729645564208	0.099998178086
2	1849	1.829643742382	0.099998178174
2	2019	1.929641920632	0.09999817825
2	2193	2.029640098943	0.099998178311
2	2363	2.129638277296	0.099998178353
2	2615	2.229642889053	0.100004611757
2	2785	2.329641067426	0.099998178373
2	2955	2.42963924578	0.099998178354
2	3125	2.529637424098	0.099998178318
2	3295	2.629648602366	0.100011178268
2	3465	2.729646780571	0.099998178205
2	3635	2.829644958703	0.099998178132
2	3805	2.929643136759	0.099998178056
2	3979	3.029641314731	0.099998177972
2	4149	3.129639492621	0.09999817789
2	4401	3.229644261834	0.100004769213
2	4577	3.329642439572	0.099998177738
2	4747	3.429640617245	0.099998177673
2	4917	3.529638794861	0.099998177616
2	5087	3.629636972428	0.099998177567
2	5257	3.729648149959	0.100011177531
2	5427	3.829646327462	0.099998177503
2	5597	3.929644504947	0.099998177485
2	5771	4.029642682424	0.099998177477
3	829	1.22964167464	2
3	999	1.329639852404	2
3	1169	1.429638030226	2
3	1339	1.529636208128	2
3	1509	1.629647386122	2
3	1679	1.729645564208	2
3	1849	1.829643742382	2
3	2019	1.929641920632	2
3	2193	2.029640098943	2
3	2363	2.129638277296	2
3	2615	2.229642889053	2
3	2785	2.329641067426	2
3	2955	2.42963924578	2
3	3125	2.529637424098	2
3	3295	2.629648602366	2
3	3465	2.729646780571	2
3	3635	2.829644958703	2
3	3805	2.929643136759	2
3	3979	3.029641314731	2
3	4149	3.129639492621	2
3	4401	3.229644261834	2
3	4577	3.329642439572	2
3	4747	3.429640617245	2
3	4917	3.529638794861	2
3	5087	3.629636972428	2
3	5257	3.729648149959	2
3	5427	3.829646327462	2
3	5597	3.929644504947	2
3	5771	4.029642682424	2
4	872	1.254478704293	0.100001615425
4	1042	1.354476882098	0.099998177805
4	1212	1.454488059971	0.100011177873
4	1382	1.554486237925	0.099998177954
4	1552	1.654484415969	0.099998178044
4	1722	1.754482594099	0.09999817813
4	1892	1.854480772308	0.099998178209
4	2062	1.954478950581	0.099998178273
4	2236	2.054477128905	0.099998178324
4	2406	2.154488307259	0.100011178354
4	2658	2.254479919005	0.099991611746
4	2828	2.354478097358	0.099998178353
4	2998	2.454489275685	0.100011178327
4	3168	2.554487453972	0.099998178287
4	3338	2.654485632204	0.099998178232
4	3508	2.754483810371	0.099998178167
4	3678	2.854481988464	0.099998178093
4	3848	2.954480166481	0.099998178017
4	4022	3.054478344418	0.099998177937
4	4192	3.154489522276	0.100011177858
4	4444	3.254481291462	0.099991769186
4	4614	3.354479469177	0.099998177715
4	4784	3.45447764683	0.099998177653
4	4954	3.554488824433	0.100011177603
4	5124	3.65448700199	0.099998177557
4	5294	3.754485179516	0.099998177526
4	5464	3.854483357016	0.0999981775
4	5634	3.954481534501	0.099998177485
4	5808	4.054479711981	0.09999817748
5	872	1.254478704293	1
5	1042	1.354476882098	1
5	1212	1.454488059971	1
5	1382	1.554486237925	1
5	1552	1.654484415969	1
5	1722	1.754482594099	1
5	1892	1.854480772308	1
5	2062	1.954478950581	1
5	2236	2.054477128905	1
5	2406	2.154488307259	1
5	2658	2.254479919005	1
5	2828	2.354478097358	1
5	2998	2.454489275685	1
5	3168	2.554487453972	1
5	3338	2.654485632204	1
5	3508	2.754483810371	1
5	3678	2.854481988464	1
5	3848	2.954480166481	1
5	4022	3.054478344418	1
5	4192	3.154489522276	1
5	4444	3.254481291462	1
5	4614	3.354479469177	1
5	4784	3.45447764683	1
5	4954	3.554488824433	1
5	5124	3.65448700199	1
5	5294	3.754485179516	1
5	5464	3.854483357016	1
5	5634	3.954481534501	1
5	5808	4.054479711981	1
6	872	1.254478704293	0.100001615425
6	1042	1.354476882098	0.099998177805
6	1212	1.454488059971	0.100011177873
6	1382	1.554486237925	0.099998177954
6	1552	1.654484415969	0.099998178044
6	1722	1.754482594099	0.09999817813
6	1892	1.854480772308	0.099998178209
6	2062	1.954478950581	0.099998178273
6	2236	2.054477128905	0.099998178324
6	2406	2.154488307259	0.100011178354
6	2658	2.254479919005	0.099991611746
6	2828	2.354478097358	0.099998178353
6	2998	2.454489275685	0.100011178327
6	3168	2.554487453972	0.099998178287
6	3338	2.654485632204	0.099998178232
6	3508	2.754483810371	0.099998178167
6	3678	2.854481988464	0.099998178093
6	3848	2.954480166481	0.099998178017
6	4022	3.054478344418	0.099998177937
6	4192	3.154489522276	0.100011177858
6	4444	3.254481291462	0.099991769186
6	4614	3.354479469177	0.099998177715
6	4784	3.45447764683	0.099998177653
6	4954	3.554488824433	0.100011177603
6	5124	3.65448700199	0.099998177557
6	5294	3.754485179516	0.099998177526
6	5464	3.854483357016	0.0999981775
6	5634	3.954481534501	0.099998177485
6	5808	4.054479711981	0.09999817748
7	872	1.254478704293	1
7	1042	1.354476882098	1
7	1212	1.454488059971	1
7	1382	1.554486237925	1
7	1552	1.654484415969	1
7	1722	1.754482594099	1
7	1892	1.854480772308	1
7	2062	1.954478950581	1
7	2236	2.054477128905	1
7	2406	2.154488307259	1
7	2658	2.254479919005	1
7	2828	2.354478097358	1
7	2998	2.454489275685	1
7	3168	2.554487453972	1
7	3338	2.654485632204	1
7	3508	2.754483810371	1
7	3678	2.854481988464	1
7	3848	2.954480166481	1
7	4022	3.054478344418	1
7	4192	3.154489522276	1
7	4444	3.254481291462	1
7	4614	3.354479469177	1
7	4784	3.45447764683	1
7	4954	3.554488824433	1
7	5124	3.65448700199	1
7	5294	3.754485179516	1
7	5464	3.854483357016	1
7	5634	3.954481534501	1
7	5808	4.054479711981	1
8	878	1.254478733914	0.100001615425
8	1048	1.354476911724	0.09999817781
8	1218	1.454488089603	0.100011177879
8	1388	1.554486267566	0.099998177963
8	1558	1.65448444562	0.099998178054
8	1728	1.754482623761	0.099998178141
8	1898	1.854480801979	0.099998178218
8	2068	1.954478980261	0.099998178282
8	2242	2.054477158591	0.09999817833
8	2412	2.154488336949	0.100011178358
8	2664	2.254479948698	0.099991611749
8	2834	2.354478127051	0.099998178353
8	3004	2.454489305376	0.100011178325
8	3174	2.554487483658	0.099998178282
8	3344	2.654485661884	0.099998178226
8	3514	2.754483840043	0.099998178159
8	3684	2.854482018127	0.099998178084
8	3854	2.954480196134	0.099998178007
8	4028	3.054478374061	0.099998177927
8	4198	3.154489551908	0.100011177847
8	4450	3.254481321084	0.099991769176
8	4620	3.354479498788	0.099998177704
8	4790	3.454477676433	0.099998177645
8	4960	3.554488854027	0.100011177594
8	5130	3.654487031578	0.099998177551
8	5300	3.754485209099	0.099998177521
8	5470	3.854483386595	0.099998177496
8	5640	3.954481564078	0.099998177483
8	5814	4.054479741556	0.099998177478
9	878	1.254478733914	2
9	1048	1.354476911724	2
9	1218	1.454488089603	2
9	1388	1.554486267566	2
9	1558	1.65448444562	2
9	1728	1.754482623761	2
9	1898	1.854480801979	2
9	2068	1.954478980261	2
9	2242	2.054477158591	2
9	2412	2.154488336949	2
9	2664	2.254479948698	2
9	2834	2.354478127051	2
9	3004	2.454489305376	2
9	3174	2.554487483658	2
9	3344	2.654485661884	2
9	3514	2.754483840043	2
9	3684	2.854482018127	2
9	3854	2.954480196134	2
9	4028	3.054478374061	2
9	4198	3.154489551908	2
9	4450	3.254481321084	2
9	4620	3.354479498788	2
9	4790	3.454477676433	2
9	4960	3.554488854027	2
9	5130	3.654487031578	2
9	5300	3.754485209099	2
9	5470	3.854483386595	2
9	5640	3.954481564078	2
9	5814	4.054479741556	2
10	884	1.254478763535	0.100001615426
10	1054	1.354476941345	0.09999817781
10	1224	1.454488119227	0.100011177882
10	1394	1.554486297195	0.099998177968
10	1564	1.654484475255	0.09999817806
10	1734	1.754482653402	0.099998178147
10	1904	1.854480831627	0.099998178225
10	2074	1.954479009916	0.099998178289
10	2248	2.054477188253	0.099998178337
10	2418	2.154488366616	0.100011178363
10	2670	2.254479978368	0.099991611752
10	2840	2.354478156723	0.099998178355
10	3010	2.454489335049	0.100011178326
10	3180	2.55448751333	0.099998178281
10	3350	2.654485691553	0.099998178223
10	3520	2.754483869708	0.099998178155
10	3690	2.854482047787	0.099998178079
10	3860	2.954480225788	0.099998178001
10	4034	3.054478403707	0.099998177919
10	4204	3.154489581547	0.10001117784
10	4456	3.254481350715	0.099991769168
10	4626	3.354479528413	0.099998177698
10	4796	3.454477706051	0.099998177638
10	4966	3.554488883639	0.100011177588
10	5136	3.654487061185	0.099998177546
10	5306	3.754485238701	0.099998177516
10	5476	3.854483416194	0.099998177493
10	5646	3.954481593676	0.099998177482
10	5820	4.054479771152	0.099998177476
11	884	1.254478763535	3
11	1054	1.354476941345	3
11	1224	1.454488119227	3
11	1394	1.554486297195	3
11	1564	1.654484475255	3
11	1734	1.754482653402	3
11	1904	1.854480831627	3
11	2074	1.954479009916	3
11	2248	2.054477188253	3
11	2418	2.154488366616	3
11	2670	2.254479978368	3
11	2840	2.354478156723	3
11	3010	2.454489335049	3
11	3180	2.55448751333	3
11	3350	2.654485691553	3
11	3520	2.754483869708	3
11	3690	2.854482047787	3
11	3860	2.954480225788	3
11	4034	3.054478403707	3
11	4204	3.154489581547	3
11	4456	3.254481350715	3
11	4626	3.354479528413	3
11	4796	3.454477706051	3
11	4966	3.554488883639	3
11	5136	3.654487061185	3
11	5306	3.754485238701	3
11	5476	3.854483416194	3
11	5646	3.954481593676	3
11	5820	4.054479771152	3
12	2084	2	0
12	3870	3	0
12	5656	4	0
13	2084	2	0.01189235551
13	3870	3	0.012586
13	5656	4	0.012586
14	2084	2	0
14	3870	3	0
14	5656	4	0
15	2085	2	1
15	3871	3	1
15	5657	4	1
16	2085	2	0.011762059262
16	3871	3	0.012586
16	5657	4	0.012586
17	2085	2	0
17	3871	3	0
17	5657	4	0
18	2086	2	2
18	3872	3	2
18	5658	4	2
19	2086	2	0.011762118504
19	3872	3	0.012586
19	5658	4	0.012586
20	2086	2	0
20	3872	3	0
20	5658	4	0
21	2087	2	3
21	3873	3	3
21	5659	4	3
22	2087	2	0.011761177744
22	3873	3	0.012586
22	5659	4	0.012586
23	2087	2	0
23	3873	3	0
23	5659	4	0
0	6152	4.213882778158	0.099991947814
0	6322	4.313880955639	0.099998177481
0	6492	4.413892133129	0.10001117749
0	6662	4.513890310629	0.0999981775
0	6832	4.613888488141	0.099998177512
0	7002	4.713886665663	0.099998177522
0	7172	4.813884843195	0.099998177532
0	7342	4.913883020736	0.099998177541
0	7516	5.013881198281	0.099998177545
0	7686	5.113892375832	0.100011177551
0	7938	5.213884511687	0.099992135855
0	8108	5.313882689244	0.099998177557
0	8278	5.413880866802	0.099998177558
0	8448	5.51389204436	0.100011177558
0	8618	5.613890221919	0.099998177559
0	8788	5.713888399477	0.099998177558
0	8958	5.813886577036	0.099998177559
0	9128	5.913884754595	0.099998177559
0	9302	6.013882932157	0.099998177562
0	9472	6.113881109721	0.099998177564
0	9724	6.213886437773	0.100005328052
0	9894	6.313884615344	0.099998177571
0	10064	6.413882792919	0.099998177575
0	10234	6.513880970499	0.09999817758
0	10404	6.613892148084	0.100011177585
0	10574	6.713890325673	0.099998177589
0	10744	6.813888503269	0.099998177596
0	10914	6.913886680869	0.0999981776
0	11088	7.013884858475	0.099998177606
0	11258	7.113883036085	0.09999817761
0	11510	7.21388855863	0.100005522545
0	11680	7.313886736247	0.099998177617
0	11850	7.413884913867	0.09999817762
0	12020	7.513883091488	0.099998177621
0	12190	7.613881269112	0.099998177624
0	12360	7.713892446737	0.100011177625
0	12530	7.813890624362	0.099998177625
0	12700	7.913888801989	0.099998177627
0	12874	8.013886979617	0.099998177628
0	13044	8.113885157245	0.099998177628
0	13296	8.213890875837	0.100005718592
0	13466	8.313889053467	0.09999817763
0	13636	8.413887231098	0.099998177631
0	13806	8.513885408732	0.099998177634
0	13976	8.613883586366	0.099998177634
0	14146	8.713881764	0.099998177634
0	14316	8.813879941636	0.099998177636
0	14486	8.913891119274	0.100011177638
0	14654	9.013889296913	0.099998177639
0	14824	9.113887474553	0.09999817764
0	15082	9.213880390305	0.099992915752
0	15246	9.313891567949	0.100011177644
0	15416	9.413889745595	0.099998177646
0	15586	9.513887923241	0.099998177646
0	15756	9.613886100888	0.099998177647
0	15926	9.713884278539	0.099998177651
0	16096	9.81388245619	0.099998177651
0	16266	9.913880634923	0.099998178733
0	16440	10.013891811467	0.100011176544
0	16610	10.113889988555	0.099998177088
0	16862	10.213883105509	0.099993116954
0	17032	10.313881283016	0.099998177507
0	17202	10.413892463099	0.100011180083
0	17372	10.513890643804	0.099998180705
0	17548	10.61388882416	0.099998180356
0	17718	10.713887007753	0.099998183593
0	17882	10.813885182504	0.099998174751
0	18058	10.91388336373	0.099998181226
0	18226	11.01388154325	0.09999817952
0	18396	11.113892723316	0.100011180066
0	18648	11.213886038171	0.099993314855
0	18818	11.313884218238	0.099998180067
0	18987	11.413882398305	0.099998180067
0	19157	11.513880578377	0.099998180072
0	19327	11.613891758448	0.100011180071
0	19497	11.71388993852	0.099998180072
0	19667	11.813888118592	0.099998180072
0	19836	11.913886298666	0.099998180074
0	20010	12.01388447874	0.099998180074
0	20179	12.113882658817	0.099998180077
0	20430	12.213889174735	0.100006515918
0	20600	12.313887354813	0.099998180078
0	20770	12.413885534891	0.099998180078
0	20940	12.513883714971	0.09999818008
0	21109	12.613881895051	0.09999818008
0	21278	12.713880075131	0.09999818008
0	21446	12.813891255214	0.100011180083
0	21615	12.913889435296	0.099998180082
0	21787	13.013887615379	0.099998180083
0	21956	13.113885795463	0.099998180084
0	22206	13.213892512874	0.100006717411
0	22374	13.31389069296	0.099998180086
0	22541	13.413888873046	0.099998180086
0	22708	13.513887053134	0.099998180088
0	22874	13.613885233222	0.099998180088
0	23040	13.71388341331	0.099998180088
0	23207	13.813881593399	0.099998180089
0	23373	13.913879773489	0.09999818009
0	23544	14.013890953579	0.10001118009
0	23711	14.113889133669	0.09999818009
0	24146	14.213881412284	0.099992278615
0	24312	14.313892592378	0.100011180094
0	24478	14.413890772517	0.099998180139
0	24644	14.513888952831	0.099998180314
0	24810	14.613887133523	0.099998180692
0	24976	14.713885314847	0.099998181324
0	25142	14.813883497076	0.099998182229
0	25308	14.913881680489	0.099998183413
0	25478	15.013879865337	0.099998184848
0	25644	15.113891051845	0.100011186508
0	25883	15.213885172736	0.099994120891
0	26049	15.313883363033	0.099998190297
0	26215	15.413881555357	0.099998192324
0	26381	15.513879749738	0.099998194381
0	26547	15.613890946169	0.100011196431
0	26713	15.713889144616	0.099998198447
0	26879	15.813887345019	0.099998200403
0	27045	15.913885547301	0.099998202282
0	27215	16.013883751367	0.099998204066
0	27381	16.113881957103	0.099998205736
0	27608	16.213889280666	0.100007323563
0	27774	16.313887489353	0.099998208687
0	27940	16.413885699319	0.099998209966
0	28106	16.513883910445	0.099998211126
0	28272	16.613882122628	0.099998212183
0	28438	16.713880335787	0.099998213159
0	28604	16.81389154986	0.100011214073
0	28770	16.913889764811	0.099998214951
0	28940	17.013887980622	0.099998215811
0	29106	17.113886197289	0.099998216667
0	29330	17.213880723385	0.099994526096
0	29496	17.313891941819	0.100011218434
0	29662	17.413890161176	0.099998219357
0	29828	17.513888381488	0.099998220312
0	29994	17.613886602786	0.099998221298
0	30160	17.713884825093	0.099998222307
0	30326	17.813883048429	0.099998223336
0	30492	17.913881272804	0.099998224375
0	30725	18.013887578597	0.100006305793
0	30891	18.113885805054	0.099998226457
0	31115	18.213880533861	0.099994728807
0	31281	18.313891762344	0.100011228483
0	31447	18.413889991806	0.099998229462
0	31613	18.513888222219	0.099998230413
0	31779	18.61388645355	0.099998231331
0	31945	18.71388468577	0.09999823222
0	32111	18.813882918845	0.099998233075
0	32277	18.91388115275	0.099998233905
0	32447	19.013892387456	0.100011234706
0	32613	19.113890622944	0.099998235488
0	32837	19.213885554598	0.099994931654
0	33003	19.31388379159	0.099998236992
0	33169	19.413882029316	0.099998237726
0	33335	19.513880267764	0.099998238448
0	33501	19.613891506928	0.100011239164
0	33667	19.713889746803	0.099998239875
0	33833	19.813887987383	0.09999824058
0	33999	19.913886228661	0.099998241278
0	34232	20.013892550929	0.100006322268
0	34398	20.113890793594	0.099998242665
0	34622	20.213885928156	0.099995134562
0	34788	20.313884172182	0.099998244026
0	34954	20.413882416878	0.099998244696
0	35120	20.513880662233	0.099998245355
0	35286	20.613891908238	0.100011246005
0	35452	20.713890154879	0.099998246641
0	35618	20.813888402146	0.099998247267
0	35784	20.913886650027	0.099998247881
0	35954	21.013884898507	0.09999824848
0	36120	21.113883147574	0.099998249067
0	36344	21.213891485141	0.100008337567
0	36510	21.313889735348	0.099998250207
0	36676	21.413887986108	0.09999825076
0	36842	21.513886237409	0.099998251301
0	37008	21.613884489241	0.099998251832
0	37174	21.713882741595	0.099998252354
0	37340	21.813880994461	0.099998252866
0	37506	21.913892247831	0.10001125337
0	38188	21.929645444123	0.015753196292
0	38358	22.029643701322	0.099998257199
0	38524	22.129641960224	0.099998258902
0	38748	22.229637504073	0.099995543849
0	38914	22.329648763645	0.100011259572
0	39080	22.429647023413	0.099998259768
0	39246	22.529645283271	0.099998259858
0	39412	22.629643543098	0.099998259827
0	39578	22.729641802772	0.099998259674
0	39744	22.829640062154	0.099998259382
0	39907	22.929638321107	0.099998258953
0	40074	23.029636579488	0.099998258381
0	40237	23.129647837148	0.10001125766
0	40452	23.229636490411	0.099988653263
0	40614	23.32964774618	0.100011255769
0	40774	23.429646000772	0.099998254592
0	40934	23.529644254033	0.099998253261
0	41094	23.629642505806	0.099998251773
0	41251	23.729640755935	0.099998250129
0	41408	23.82963900426	0.099998248325
0	41565	23.929637250626	0.099998246366
0	41723	24.029648494885	0.100011244259
0	41877	24.129646736907	0.099998242022
0	42065	24.229644976598	0.099998239691
0	42219	24.329643213897	0.099998237299
0	42373	24.429641448784	0.099998234887
0	42527	24.529639681279	0.099998232495
0	42681	24.629637911432	0.099998230153
0	42835	24.729649139326	0.100011227894
0	42989	24.829647365068	0.099998225742
0	43143	24.929645588775	0.099998223707
0	43301	25.029643810577	0.099998221802
0	43455	25.129642030604	0.099998220027
0	43643	25.229640248979	0.099998218375
0	43797	25.329638465821	0.099998216842
0	43951	25.429636681234	0.099998215413
0	44105	25.529647895304	0.10001121407
0	44259	25.629646108108	0.099998212804
0	44413	25.729644319711	0.099998211603
0	44567	25.829642530157	0.099998210446
0	44721	25.929640739485	0.099998209328
0	44879	26.029638947724	0.099998208239
0	45033	26.129637154897	0.099998207173
0	45221	26.229648361022	0.100011206125
0	45375	26.329646566119	0.099998205097
0	45529	26.429644770205	0.099998204086
0	45683	26.529642973305	0.0999982031
0	45837	26.62964117544	0.099998202135
0	45991	26.729639376643	0.099998201203
0	46145	26.829637576945	0.099998200302
0	46299	26.929648776385	0.10001119944
0	46457	27.029646975003	0.099998198618
0	46611	27.129645172841	0.099998197838
0	46799	27.229643369945	0.099998197104
0	46953	27.329641566359	0.099998196414
0	47107	27.429639762128	0.099998195769
0	47261	27.529637957295	0.099998195167
0	47415	27.629649151899	0.100011194604
0	47569	27.729647345983	0.099998194084
0	47717	27.829645539583	0.0999981936
0	47871	27.929643732731	0.099998193148
0	48029	28.029641925457	0.099998192726
0	48183	28.129640117794	0.099998192337
0	48371	28.229638309766	0.099998191972
0	48525	28.329636501395	0.099998191629
0	48679	28.429647692705	0.10001119131
0	48833	28.529645883717	0.099998191012
0	48987	28.629644074449	0.099998190732
0	49141	28.729642264918	0.099998190469
0	49295	28.829640455141	0.099998190223
0	49449	28.929638645135	0.099998189994
0	49607	29.029636834912	0.099998189777
0	49761	29.129648024489	0.100011189577
0	49949	29.229646213878	0.099998189389
0	50103	29.329644403091	0.099998189213
0	50257	29.429642592142	0.099998189051
0	50411	29.52964078104	0.099998188898
0	50565	29.629638969796	0.099998188756
0	50719	29.729637158418	0.099998188622
0	50873	29.829648346918	0.1000111885
0	51027	29.929646535305	0.099998188387
0	51185	30.029644723584	0.099998188279
0	51339	30.129642911764	0.09999818818
0	51527	30.229641099852	0.099998188088
0	51681	30.329639287852	0.099998188
0	51835	30.429637475772	0.09999818792
0	51989	30.529648663617	0.100011187845
0	52143	30.62964685139	0.099998187773
0	52297	30.729645039097	0.099998187707
0	52451	30.829643226741	0.099998187644
0	52605	30.929641414326	0.099998187585
0	52763	31.029639601855	0.099998187529
0	52917	31.129637789332	0.099998187477
0	53105	31.229648976761	0.100011187429
0	53259	31.329647164143	0.099998187382
0	53413	31.429645351481	0.099998187338
0	53567	31.529643538778	0.099998187297
0	53721	31.629641726037	0.099998187259
0	53875	31.729639913257	0.09999818722
0	54029	31.829638100443	0.099998187186
0	54183	31.929636287596	0.099998187153
0	54341	32.029647474718	0.100011187122
0	54495	32.12964566181	0.099998187092
0	54683	32.229643848874	0.099998187064
0	54837	32.329642035912	0.099998187038
0	54991	32.429640222926	0.099998187014
0	55145	32.529638409916	0.09999818699
0	55299	32.629636596885	0.099998186969
0	55453	32.729647783831	0.100011186946
0	55607	32.829645970757	0.099998186926
0	55761	32.929644157692	0.099998186935
0	55919	33.029642344872	0.09999818718
0	56073	33.129640532315	0.099998187443
0	56261	33.229638720341	0.099998188026
0	56415	33.329636909139	0.099998188798
0	56569	33.429648098673	0.100011189534
0	56723	33.52964628898	0.099998190307
0	56877	33.629644480805	0.099998191825
0	57031	33.729642673771	0.099998192966
0	57185	33.829640867478	0.099998193707
0	57339	33.92963906148	0.099998194002
0	57497	34.029637255566	0.099998194086
0	57651	34.129648448463	0.100011192897
0	57839	34.229646639517	0.099998191054
0	57993	34.329644829592	0.099998190075
0	58147	34.429643017927	0.099998188335
0	58301	34.529641205425	0.099998187498
0	58455	34.629639392564	0.099998187139
0	58609	34.72963757946	0.099998186896
0	58763	34.829648766169	0.100011186709
0	58917	34.929646952854	0.099998186685
0	59075	35.029645139531	0.099998186677
0	59229	35.129643326203	0.099998186672
0	59417	35.229641512868	0.099998186665
0	59571	35.329639699526	0.099998186658
0	59725	35.429637886178	0.099998186652
0	59879	35.529649072823	0.100011186645
0	60033	35.629647259465	0.099998186642
0	60187	35.729645446101	0.099998186636
0	60341	35.829643632731	0.09999818663
0	60495	35.929641819356	0.099998186625
0	60653	36.029640005977	0.099998186621
0	60807	36.129638192592	0.099998186615
0	60995	36.229636379204	0.099998186612
0	61149	36.329647565813	0.100011186609
0	61303	36.429645752418	0.099998186605
0	61457	36.529643939018	0.0999981866
0	61611	36.629642125616	0.099998186598
0	61765	36.729640312209	0.099998186593
0	61919	36.829638498799	0.09999818659
0	62073	36.929636685385	0.099998186586
0	62231	37.029647871969	0.100011186584
0	62385	37.12964605855	0.099998186581
0	62573	37.229644245126	0.099998186576
0	62727	37.329642431702	0.099998186576
0	62881	37.429640618274	0.099998186572
0	63035	37.529638804845	0.099998186571
0	63189	37.629636991413	0.099998186568
0	63343	37.729648177978	0.100011186565
0	63497	37.829646364541	0.099998186563
0	63651	37.9296445511	0.099998186559
0	63809	38.029642737658	0.099998186558
0	63963	38.129640924214	0.099998186556
0	64151	38.229639110768	0.099998186554
0	64305	38.329637297319	0.099998186551
0	64459	38.42964848387	0.100011186551
0	64613	38.529646670418	0.099998186548
0	64767	38.629644856965	0.099998186547
0	64921	38.72964304351	0.099998186545
0	65075	38.829641230053	0.099998186543
0	65229	38.929639416595	0.099998186542
0	65387	39.029637603135	0.09999818654
0	65541	39.129648789673	0.100011186538
0	65729	39.229646976211	0.099998186538
0	65883	39.329645162747	0.099998186536
0	66037	39.429643349281	0.099998186534
0	66191	39.529641535814	0.099998186533
0	66345	39.629639722345	0.099998186531
0	66499	39.729637908877	0.099998186532
0	66653	39.829649095407	0.10001118653
0	66807	39.929647281936	0.099998186529
0	66965	40.029645468463	0.099998186527
0	67119	40.12964365499	0.099998186527
0	67307	40.229641841516	0.099998186526
0	67461	40.32964002804	0.099998186524
0	67615	40.429638214564	0.099998186524
0	67769	40.529636401088	0.099998186524
0	67923	40.629647587609	0.100011186521
0	68077	40.72964577413	0.099998186521
0	68231	40.82964396065	0.09999818652
0	68385	40.929642147168	0.099998186518
0	68543	41.029640333686	0.099998186518
0	68697	41.129638520204	0.099998186518
0	68885	41.229636706722	0.099998186518
0	69039	41.329647893238	0.100011186516
0	69193	41.429646079753	0.099998186515
0	69347	41.529644266268	0.099998186515
0	69501	41.629642452782	0.099998186514
0	69655	41.729640639295	0.099998186513
0	69809	41.829638825808	0.099998186513
0	69963	41.929637012319	0.099998186511
0	70121	42.02964819883	0.100011186511
0	70275	42.129646385342	0.099998186512
0	70463	42.229644571852	0.09999818651
0	70617	42.329642758363	0.099998186511
0	70771	42.429640944872	0.099998186509
0	70925	42.529639131382	0.09999818651
0	71079	42.629637317889	0.099998186507
0	71233	42.729648504397	0.100011186508
0	71387	42.829646690905	0.099998186508
0	71541	42.929644877412	0.099998186507
0	71699	43.029643063918	0.099998186506
0	71853	43.129641250424	0.099998186506
0	72041	43.22963943693	0.099998186506
0	72195	43.329637623436	0.099998186506
0	72349	43.429648809941	0.100011186505
0	72503	43.529646996446	0.099998186505
0	72657	43.629645182951	0.099998186505
0	72811	43.729643369455	0.099998186504
0	72965	43.829641555959	0.099998186504
0	73119	43.929639742462	0.099998186503
0	73277	44.029637928965	0.099998186503
0	73431	44.129649115467	0.100011186502
0	73619	44.22964730197	0.099998186503
0	73773	44.329645488472	0.099998186502
0	73927	44.429643674974	0.099998186502
0	74081	44.529641861475	0.099998186501
0	74235	44.629640047977	0.099998186502
0	74389	44.729638234478	0.099998186501
0	74543	44.829636420978	0.0999981865
0	74697	44.92964760748	0.100011186502
0	74855	45.02964579398	0.0999981865
0	75009	45.129643980481	0.099998186501
0	75197	45.22964216698	0.099998186499
0	75351	45.329640353479	0.099998186499
0	75505	45.429638539978	0.099998186499
0	75659	45.529636726478	0.0999981865
0	75813	45.629647912976	0.100011186498
0	75967	45.729646099475	0.099998186499
0	76121	45.829644285973	0.099998186498
0	76275	45.929642472471	0.099998186498
0	76433	46.029640658968	0.099998186497
0	76587	46.129638845466	0.099998186498
0	76775	46.229637031964	0.099998186498
0	76929	46.329648218462	0.100011186498
0	77083	46.429646404959	0.099998186497
0	77237	46.529644591456	0.099998186497
0	77391	46.629642777953	0.099998186497
0	77545	46.72964096445	0.099998186497
0	77699	46.829639150946	0.099998186496
0	77853	46.929637337443	0.099998186497
0	78011	47.02964852394	0.100011186497
0	78165	47.129646710435	0.099998186495
0	78353	47.229644896931	0.099998186496
0	78507	47.329643083427	0.099998186496
0	78661	47.429641269924	0.099998186497
0	78815	47.529639456421	0.099998186497
0	78969	47.629637642916	0.099998186495
0	79123	47.729648829411	0.100011186495
0	79277	47.829647015906	0.099998186495
0	79431	47.929645202401	0.099998186495
0	79589	48.029643388897	0.099998186496
0	79743	48.129641575393	0.099998186496
0	79931	48.229639761888	0.099998186495
0	80085	48.329637948383	0.099998186495
0	80239	48.429649134877	0.100011186494
0	80393	48.529647321373	0.099998186496
0	80547	48.629645507867	0.099998186494
0	80701	48.729643694361	0.099998186494
0	80855	48.829641880856	0.099998186495
0	81009	48.929640067351	0.099998186495
0	81167	49.029638253845	0.099998186494
0	81321	49.12963644034	0.099998186495
0	81509	49.229647626834	0.100011186494
0	81663	49.329645813345	0.099998186511
0	81817	49.429644000062	0.099998186717
0	81971	49.529642186551	0.099998186489
0	82125	49.629640374122	0.099998187571
0	82279	49.729638565487	0.099998191365
0	82433	49.829636761148	0.099998195661
0	82587	49.929647960388	0.10001119924
0	82745	50.02964616462	0.099998204232
0	82899	50.129644374241	0.099998209621
0	83081	50.229642590426	0.099998216185
0	83235	50.329640813637	0.099998223211
0	83389	50.429639046371	0.099998232734
0	83543	50.529637290737	0.099998244366
0	83697	50.629648547519	0.100011256782
0	83851	50.729646817381	0.099998269862
0	84005	50.829645100898	0.099998283517
0	84159	50.929643398575	0.099998297677
0	84317	51.029641710848	0.099998312273
0	84471	51.129640038105	0.099998327257
1	6152	4.213882778158	3
1	6322	4.313880955639	3
1	6492	4.413892133129	3
1	6662	4.513890310629	3
1	6832	4.613888488141	3
1	7002	4.713886665663	3
1	7172	4.813884843195	3
1	7342	4.913883020736	3
1	7516	5.013881198281	3
1	7686	5.113892375832	3
1	7938	5.213884511687	3
1	8108	5.313882689244	3
1	8278	5.413880866802	3
1	8448	5.51389204436	3
1	8618	5.613890221919	3
1	8788	5.713888399477	3
1	8958	5.813886577036	3
1	9128	5.913884754595	3
1	9302	6.013882932157	3
1	9472	6.113881109721	3
1	9724	6.213886437773	3
1	9894	6.313884615344	3
1	10064	6.413882792919	3
1	10234	6.513880970499	3
1	10404	6.613892148084	3
1	10574	6.713890325673	3
1	10744	6.813888503269	3
1	10914	6.913886680869	3
1	11088	7.013884858475	3
1	11258	7.113883036085	3
1	11510	7.21388855863	3
1	11680	7.313886736247	3
1	11850	7.413884913867	3
1	12020	7.513883091488	3
1	12190	7.613881269112	3
1	12360	7.713892446737	3
1	12530	7.813890624362	3
1	12700	7.913888801989	3
1	12874	8.013886979617	3
1	13044	8.113885157245	3
1	13296	8.213890875837	3
1	13466	8.313889053467	3
1	13636	8.413887231098	3
1	13806	8.513885408732	3
1	13976	8.613883586366	3
1	14146	8.713881764	3
1	14316	8.813879941636	3
1	14486	8.913891119274	3
1	14654	9.013889296913	3
1	14824	9.113887474553	3
1	15082	9.213880390305	3
1	15246	9.313891567949	3
1	15416	9.413889745595	3
1	15586	9.513887923241	3
1	15756	9.613886100888	3
1	15926	9.713884278539	3
1	16096	9.81388245619	3
1	16266	9.913880634923	3
1	16440	10.013891811467	3
1	16610	10.113889988555	3
1	16862	10.213883105509	3
1	17032	10.313881283016	3
1	17202	10.413892463099	3
1	17372	10.513890643804	3
1	17548	10.61388882416	3
1	17718	10.713887007753	3
1	17882	10.813885182504	3
1	18058	10.91388336373	3
1	18226	11.01388154325	3
1	18396	11.113892723316	3
1	18648	11.213886038171	3
1	18818	11.313884218238	3
1	18987	11.413882398305	3
1	19157	11.513880578377	3
1	19327	11.613891758448	3
1	19497	11.71388993852	3
1	19667	11.813888118592	3
1	19836	11.913886298666	3
1	20010	12.01388447874	3
1	20179	12.113882658817	3
1	20430	12.213889174735	3
1	20600	12.313887354813	3
1	20770	12.413885534891	3
1	20940	12.513883714971	3
1	21109	12.613881895051	3
1	21278	12.713880075131	3
1	21446	12.813891255214	3
1	21615	12.913889435296	3
1	21787	13.013887615379	3
1	21956	13.113885795463	3
1	22206	13.213892512874	3
1	22374	13.31389069296	3
1	22541	13.413888873046	3
1	22708	13.513887053134	3
1	22874	13.613885233222	3
1	23040	13.71388341331	3
1	23207	13.813881593399	3
1	23373	13.913879773489	3
1	23544	14.013890953579	3
1	23711	14.113889133669	3
1	24146	14.213881412284	3
1	24312	14.313892592378	3
1	24478	14.413890772517	3
1	24644	14.513888952831	3
1	24810	14.613887133523	3
1	24976	14.713885314847	3
1	25142	14.813883497076	3
1	25308	14.913881680489	3
1	25478	15.013879865337	3
1	25644	15.113891051845	3
1	25883	15.213885172736	3
1	26049	15.313883363033	3
1	26215	15.413881555357	3
1	26381	15.513879749738	3
1	26547	15.613890946169	3
1	26713	15.713889144616	3
1	26879	15.813887345019	3
1	27045	15.913885547301	3
1	27215	16.013883751367	3
1	27381	16.113881957103	3
1	27608	16.213889280666	3
1	27774	16.313887489353	3
1	27940	16.413885699319	3
1	28106	16.513883910445	3
1	28272	16.613882122628	3
1	28438	16.713880335787	3
1	28604	16.81389154986	3
1	28770	16.913889764811	3
1	28940	17.013887980622	3
1	29106	17.113886197289	3
1	29330	17.213880723385	3
1	29496	17.313891941819	3
1	29662	17.413890161176	3
1	29828	17.513888381488	3
1	29994	17.613886602786	3
1	30160	17.713884825093	3
1	30326	17.813883048429	3
1	30492	17.913881272804	3
1	30725	18.013887578597	3
1	30891	18.113885805054	3
1	31115	18.213880533861	3
1	31281	18.313891762344	3
1	31447	18.413889991806	3
1	31613	18.513888222219	3
1	31779	18.61388645355	3
1	31945	18.71388468577	3
1	32111	18.813882918845	3
1	32277	18.91388115275	3
1	32447	19.013892387456	3
1	32613	19.113890622944	3
1	32837	19.213885554598	3
1	33003	19.31388379159	3
1	33169	19.413882029316	3
1	33335	19.513880267764	3
1	33501	19.613891506928	3
1	33667	19.713889746803	3
1	33833	19.813887987383	3
1	33999	19.913886228661	3
1	34232	20.013892550929	3
1	34398	20.113890793594	3
1	34622	20.213885928156	3
1	34788	20.313884172182	3
1	34954	20.413882416878	3
1	35120	20.513880662233	3
1	35286	20.613891908238	3
1	35452	20.713890154879	3
1	35618	20.813888402146	3
1	35784	20.913886650027	3
1	35954	21.013884898507	3
1	36120	21.113883147574	3
1	36344	21.213891485141	3
1	36510	21.313889735348	3
1	36676	21.413887986108	3
1	36842	21.513886237409	3
1	37008	21.613884489241	3
1	37174	21.713882741595	3
1	37340	21.813880994461	3
1	37506	21.913892247831	3
1	38188	21.929645444123	3
1	38358	22.029643701322	3
1	38524	22.129641960224	3
1	38748	22.229637504073	3
1	38914	22.329648763645	3
1	39080	22.429647023413	3
1	39246	22.529645283271	3
1	39412	22.629643543098	3
1	39578	22.729641802772	3
1	39744	22.829640062154	3
1	39907	22.929638321107	3
1	40074	23.029636579488	3
1	40237	23.129647837148	3
1	40452	23.229636490411	3
1	40614	23.32964774618	3
1	40774	23.429646000772	3
1	40934	23.529644254033	3
1	41094	23.629642505806	3
1	41251	23.729640755935	3
1	41408	23.82963900426	3
1	41565	23.929637250626	3
1	41723	24.029648494885	3
1	41877	24.129646736907	3
1	42065	24.229644976598	3
1	42219	24.329643213897	3
1	42373	24.429641448784	3
1	42527	24.529639681279	3
1	42681	24.629637911432	3
1	42835	24.729649139326	3
1	42989	24.829647365068	3
1	43143	24.929645588775	3
1	43301	25.029643810577	3
1	43455	25.129642030604	3
1	43643	25.229640248979	3
1	43797	25.329638465821	3
1	43951	25.429636681234	3
1	44105	25.529647895304	3
1	44259	25.629646108108	3
1	44413	25.729644319711	3
1	44567	25.829642530157	3
1	44721	25.929640739485	3
1	44879	26.029638947724	3
1	45033	26.129637154897	3
1	45221	26.229648361022	3
1	45375	26.329646566119	3
1	45529	26.429644770205	3
1	45683	26.529642973305	3
1	45837	26.62964117544	3
1	45991	26.729639376643	3
1	46145	26.829637576945	3
1	46299	26.929648776385	3
1	46457	27.029646975003	3
1	46611	27.129645172841	3
1	46799	27.229643369945	3
1	46953	27.329641566359	3
1	47107	27.429639762128	3
1	47261	27.529637957295	3
1	47415	27.629649151899	3
1	47569	27.729647345983	3
1	47717	27.829645539583	3
1	47871	27.929643732731	3
1	48029	28.029641925457	3
1	48183	28.129640117794	3
1	48371	28.229638309766	3
1	48525	28.329636501395	3
1	48679	28.429647692705	3
1	48833	28.529645883717	3
1	48987	28.629644074449	3
1	49141	28.729642264918	3
1	49295	28.829640455141	3
1	49449	28.929638645135	3
1	49607	29.029636834912	3
1	49761	29.129648024489	3
1	49949	29.229646213878	3
1	50103	29.329644403091	3
1	50257	29.429642592142	3
1	50411	29.52964078104	3
1	50565	29.629638969796	3
1	50719	29.729637158418	3
1	50873	29.829648346918	3
1	51027	29.929646535305	3
1	51185	30.029644723584	3
1	51339	30.129642911764	3
1	51527	30.229641099852	3
1	51681	30.329639287852	3
1	51835	30.429637475772	3
1	51989	30.529648663617	3
1	52143	30.62964685139	3
1	52297	30.729645039097	3
1	52451	30.829643226741	3
1	52605	30.929641414326	3
1	52763	31.029639601855	3
1	52917	31.129637789332	3
1	53105	31.229648976761	3
1	53259	31.329647164143	3
1	53413	31.429645351481	3
1	53567	31.529643538778	3
1	53721	31.629641726037	3
1	53875	31.729639913257	3
1	54029	31.829638100443	3
1	54183	31.929636287596	3
1	54341	32.029647474718	3
1	54495	32.12964566181	3
1	54683	32.229643848874	3
1	54837	32.329642035912	3
1	54991	32.429640222926	3
1	55145	32.529638409916	3
1	55299	32.629636596885	3
1	55453	32.729647783831	3
1	55607	32.829645970757	3
1	55761	32.929644157692	3
1	55919	33.029642344872	3
1	56073	33.129640532315	3
1	56261	33.229638720341	3
1	56415	33.329636909139	3
1	56569	33.429648098673	3
1	56723	33.52964628898	3
1	56877	33.629644480805	3
1	57031	33.729642673771	3
1	57185	33.829640867478	3
1	57339	33.92963906148	3
1	57497	34.029637255566	3
1	57651	34.129648448463	3
1	57839	34.229646639517	3
1	57993	34.329644829592	3
1	58147	34.429643017927	3
1	58301	34.529641205425	3
1	58455	34.629639392564	3
1	58609	34.72963757946	3
1	58763	34.829648766169	3
1	58917	34.929646952854	3
1	59075	35.029645139531	3
1	59229	35.129643326203	3
1	59417	35.229641512868	3
1	59571	35.329639699526	3
1	59725	35.429637886178	3
1	59879	35.529649072823	3
1	60033	35.629647259465	3
1	60187	35.729645446101	3
1	60341	35.829643632731	3
1	60495	35.929641819356	3
1	60653	36.029640005977	3
1	60807	36.129638192592	3
1	60995	36.229636379204	3
1	61149	36.329647565813	3
1	61303	36.429645752418	3
1	61457	36.529643939018	3
1	61611	36.629642125616	3
1	61765	36.729640312209	3
1	61919	36.829638498799	3
1	62073	36.929636685385	3
1	62231	37.029647871969	3
1	62385	37.12964605855	3
1	62573	37.229644245126	3
1	62727	37.329642431702	3
1	62881	37.429640618274	3
1	63035	37.529638804845	3
1	63189	37.629636991413	3
1	63343	37.729648177978	3
1	63497	37.829646364541	3
1	63651	37.9296445511	3
1	63809	38.029642737658	3
1	63963	38.129640924214	3
1	64151	38.229639110768	3
1	64305	38.329637297319	3
1	64459	38.42964848387	3
1	64613	38.529646670418	3
1	64767	38.629644856965	3
1	64921	38.72964304351	3
1	65075	38.829641230053	3
1	65229	38.929639416595	3
1	65387	39.029637603135	3
1	65541	39.129648789673	3
1	65729	39.229646976211	3
1	65883	39.329645162747	3
1	66037	39.429643349281	3
1	66191	39.529641535814	3
1	66345	39.629639722345	3
1	66499	39.729637908877	3
1	66653	39.829649095407	3
1	66807	39.929647281936	3
1	66965	40.029645468463	3
1	67119	40.12964365499	3
1	67307	40.229641841516	3
1	67461	40.32964002804	3
1	67615	40.429638214564	3
1	67769	40.529636401088	3
1	67923	40.629647587609	3
1	68077	40.72964577413	3
1	68231	40.82964396065	3
1	68385	40.929642147168	3
1	68543	41.029640333686	3
1	68697	41.129638520204	3
1	68885	41.229636706722	3
1	69039	41.329647893238	3
1	69193	41.429646079753	3
1	69347	41.529644266268	3
1	69501	41.629642452782	3
1	69655	41.729640639295	3
1	69809	41.829638825808	3
1	69963	41.929637012319	3
1	70121	42.02964819883	3
1	70275	42.129646385342	3
1	70463	42.229644571852	3
1	70617	42.329642758363	3
1	70771	42.429640944872	3
1	70925	42.529639131382	3
1	71079	42.629637317889	3
1	71233	42.729648504397	3
1	71387	42.829646690905	3
1	71541	42.929644877412	3
1	71699	43.029643063918	3
1	71853	43.129641250424	3
1	72041	43.22963943693	3
1	72195	43.329637623436	3
1	72349	43.429648809941	3
1	72503	43.529646996446	3
1	72657	43.629645182951	3
1	72811	43.729643369455	3
1	72965	43.829641555959	3
1	73119	43.929639742462	3
1	73277	44.029637928965	3
1	73431	44.129649115467	3
1	73619	44.22964730197	3
1	73773	44.329645488472	3
1	73927	44.429643674974	3
1	74081	44.529641861475	3
1	74235	44.629640047977	3
1	74389	44.729638234478	3
1	74543	44.829636420978	3
1	74697	44.92964760748	3
1	74855	45.02964579398	3
1	75009	45.129643980481	3
1	75197	45.22964216698	3
1	75351	45.329640353479	3
1	75505	45.429638539978	3
1	75659	45.529636726478	3
1	75813	45.629647912976	3
1	75967	45.729646099475	3
1	76121	45.829644285973	3
1	76275	45.929642472471	3
1	76433	46.029640658968	3
1	76587	46.129638845466	3
1	76775	46.229637031964	3
1	76929	46.329648218462	3
1	77083	46.429646404959	3
1	77237	46.529644591456	3
1	77391	46.629642777953	3
1	77545	46.72964096445	3
1	77699	46.829639150946	3
1	77853	46.929637337443	3
1	78011	47.02964852394	3
1	78165	47.129646710435	3
1	78353	47.229644896931	3
1	78507	47.329643083427	3
1	78661	47.429641269924	3
1	78815	47.529639456421	3
1	78969	47.629637642916	3
1	79123	47.729648829411	3
1	79277	47.829647015906	3
1	79431	47.929645202401	3
1	79589	48.029643388897	3
1	79743	48.129641575393	3
1	79931	48.229639761888	3
1	80085	48.329637948383	3
1	80239	48.429649134877	3
1	80393	48.529647321373	3
1	80547	48.629645507867	3
1	80701	48.729643694361	3
1	80855	48.829641880856	3
1	81009	48.929640067351	3
1	81167	49.029638253845	3
1	81321	49.12963644034	3
1	81509	49.229647626834	3
1	81663	49.329645813345	3
1	81817	49.429644000062	3
1	81971	49.529642186551	3
1	82125	49.629640374122	3
1	82279	49.729638565487	3
1	82433	49.829636761148	3
1	82587	49.929647960388	3
1	82745	50.02964616462	3
1	82899	50.129644374241	3
1	83081	50.229642590426	3
1	83235	50.329640813637	3
1	83389	50.429639046371	3
1	83543	50.529637290737	3
1	83697	50.629648547519	3
1	83851	50.729646817381	3
1	84005	50.829645100898	3
1	84159	50.929643398575	3
1	84317	51.029641710848	3
1	84471	51.129640038105	3
2	5941	4.129640859898	0.099998177474
2	6193	4.229645807712	0.100004947814
2	6363	4.329643985195	0.099998177483
2	6533	4.429642162686	0.099998177491
2	6703	4.529640340189	0.099998177503
2	6873	4.629638517704	0.099998177515
2	7043	4.729636695227	0.099998177523
2	7213	4.829647872762	0.100011177535
2	7383	4.929646050304	0.099998177542
2	7557	5.029644227853	0.099998177549
2	7727	5.129642405405	0.099998177552
2	7979	5.229647541261	0.100005135856
2	8149	5.32964571882	0.099998177559
2	8319	5.429643896378	0.099998177558
2	8489	5.529642073937	0.099998177559
2	8653	5.629640251496	0.099998177559
2	8823	5.729638429055	0.099998177559
2	8993	5.829636606616	0.099998177561
2	9163	5.929647784176	0.10001117756
2	9337	6.029645961738	0.099998177562
2	9507	6.129644139304	0.099998177566
2	9759	6.229636467357	0.099992328053
2	9929	6.329647644929	0.100011177572
2	10099	6.429645822506	0.099998177577
2	10269	6.529644000086	0.09999817758
2	10439	6.629642177672	0.099998177586
2	10609	6.729640355263	0.099998177591
2	10779	6.82963853286	0.099998177597
2	10949	6.929636710462	0.099998177602
2	11123	7.029647888069	0.100011177607
2	11293	7.129646065679	0.09999817761
2	11545	7.229638588226	0.099992522547
2	11715	7.329636765844	0.099998177618
2	11885	7.429647943464	0.10001117762
2	12055	7.529646121087	0.099998177623
2	12225	7.629644298711	0.099998177624
2	12395	7.729642476336	0.099998177625
2	12565	7.829640653963	0.099998177627
2	12735	7.92963883159	0.099998177627
2	12909	8.029637009218	0.099998177628
2	13079	8.129648186846	0.100011177628
2	13331	8.22964090544	0.099992718594
2	13501	8.32963908307	0.09999817763
2	13671	8.429637260701	0.099998177631
2	13841	8.529648438334	0.100011177633
2	14011	8.629646615969	0.099998177635
2	14181	8.729644793604	0.099998177635
2	14351	8.82964297124	0.099998177636
2	14521	8.929641148878	0.099998177638
2	14695	9.029639326519	0.099998177641
2	14865	9.129637504159	0.09999817764
2	15117	9.22964341991	0.100005915751
2	15287	9.329641597556	0.099998177646
2	15457	9.429639775202	0.099998177646
2	15627	9.529637952848	0.099998177646
2	15797	9.629649130496	0.100011177648
2	15967	9.729647308147	0.099998177651
2	16137	9.829645485798	0.099998177651
2	16307	9.929643664531	0.099998178733
2	16481	10.029641841077	0.099998176546
2	16651	10.129640018892	0.099998177815
2	16903	10.229646135616	0.100006116724
2	17079	10.329644315461	0.099998179845
2	17249	10.429642497975	0.099998182514
2	17413	10.529640673933	0.099998175958
2	17589	10.629638854836	0.099998180903
2	17753	10.729637035366	0.09999818053
2	17923	10.829648212544	0.100011177178
2	18093	10.9296463929	0.099998180356
2	18267	11.029644573262	0.099998180362
2	18437	11.129642753328	0.099998180066
2	18689	11.229649068183	0.100006314855
2	18859	11.32964724825	0.099998180067
2	19028	11.429645428319	0.099998180069
2	19198	11.52964360839	0.099998180071
2	19368	11.629641788461	0.099998180071
2	19538	11.729639968533	0.099998180072
2	19708	11.829638148607	0.099998180074
2	19877	11.929636328681	0.099998180074
2	20051	12.029647508755	0.100011180074
2	20220	12.129645688831	0.099998180076
2	20471	12.229639204749	0.099993515918
2	20641	12.329637384827	0.099998180078
2	20811	12.429648564907	0.10001118008
2	20981	12.529646744987	0.09999818008
2	21150	12.629644925067	0.09999818008
2	21318	12.729643105147	0.09999818008
2	21487	12.829641285229	0.099998180082
2	21656	12.929639465311	0.099998180082
2	21828	13.029637645396	0.099998180085
2	21996	13.12964882548	0.100011180084
2	22247	13.229642542891	0.099993717411
2	22414	13.329640722977	0.099998180086
2	22582	13.429638903063	0.099998180086
2	22748	13.52963708315	0.099998180087
2	22914	13.629648263238	0.100011180088
2	23080	13.729646443328	0.09999818009
2	23247	13.829644623417	0.099998180089
2	23413	13.929642803507	0.09999818009
2	23584	14.029640983597	0.09999818009
2	23751	14.129639163687	0.09999818009
2	24186	14.229644442302	0.100005278615
2	24352	14.329642622401	0.099998180099
2	24518	14.429640802571	0.09999818017
2	24684	14.529638982959	0.099998180388
2	24850	14.629637163781	0.099998180822
2	25016	14.729648345294	0.100011181513
2	25182	14.829646527773	0.099998182479
2	25348	14.92964471149	0.099998183717
2	25518	15.029642896689	0.099998185199
2	25684	15.129641083587	0.099998186898
2	25923	15.229648204892	0.100007121305
2	26089	15.329646395617	0.099998190725
2	26255	15.429644588375	0.099998192758
2	26421	15.529642783188	0.099998194813
2	26587	15.629640980048	0.09999819686
2	26753	15.729639178911	0.099998198863
2	26919	15.829637379711	0.0999982008
2	27085	15.929648582362	0.100011202651
2	27255	16.02964678676	0.099998204398
2	27421	16.129644992786	0.099998206026
2	27648	16.229639316605	0.099994323819
2	27814	16.329637525515	0.09999820891
2	27980	16.429648735679	0.100011210164
2	28146	16.529646946986	0.099998211307
2	28312	16.629645159339	0.099998212353
2	28478	16.729643372663	0.099998213324
2	28644	16.829641586902	0.099998214239
2	28810	16.929639802024	0.099998215122
2	28980	17.029638018013	0.099998215989
2	29146	17.12963623487	0.099998216857
2	29370	17.229643761163	0.100007526293
2	29536	17.329641979805	0.099998218642
2	29702	17.429640199379	0.099998219574
2	29868	17.529638419912	0.099998220533
2	30034	17.629636641434	0.099998221522
2	30200	17.729647863967	0.100011222533
2	30366	17.829646087526	0.099998223559
2	30532	17.929644312122	0.099998224596
2	30765	18.02963761813	0.099993306008
2	30931	18.129648844793	0.100011226663
2	31155	18.229643573799	0.099994729006
2	31321	18.329641802473	0.099998228674
2	31487	18.429640032116	0.099998229643
2	31653	18.529638262702	0.099998230586
2	31819	18.629636494198	0.099998231496
2	31985	18.729647726575	0.100011232377
2	32151	18.829645959802	0.099998233227
2	32317	18.929644193854	0.099998234052
2	32487	19.029642428703	0.099998234849
2	32653	19.12964066433	0.099998235627
2	32877	19.22964859612	0.10000793179
2	33043	19.329646833248	0.099998237128
2	33209	19.429645071107	0.099998237859
2	33375	19.529643309687	0.09999823858
2	33541	19.629641548983	0.099998239296
2	33707	19.729639788987	0.099998240004
2	33873	19.829638029695	0.099998240708
2	34039	19.9296362711	0.099998241405
2	34272	20.029642593492	0.100006322392
2	34438	20.12964083628	0.099998242788
2	34662	20.229648970961	0.100008134681
2	34828	20.329647215105	0.099998244144
2	34994	20.429645459914	0.099998244809
2	35160	20.52964370538	0.099998245466
2	35326	20.629641951493	0.099998246113
2	35492	20.729640198238	0.099998246745
2	35658	20.829638445606	0.099998247368
2	35824	20.929636693585	0.099998247979
2	35994	21.02964794216	0.100011248575
2	36160	21.12964619132	0.09999824916
2	36384	21.229641528977	0.099995337657
2	36550	21.329639779271	0.099998250294
2	36716	21.429638030116	0.099998250845
2	36882	21.5296362815	0.099998251384
2	37048	21.629647533412	0.100011251912
2	37214	21.729645785844	0.099998252432
2	37380	21.829644038788	0.099998252944
2	38224	21.95448249291	0.124838454122
2	38394	22.054480751385	0.099998258475
2	38560	22.15447901029	0.099998258905
2	38784	22.254487554137	0.100008543847
2	38950	22.354485813695	0.099998259558
2	39116	22.454484073443	0.099998259748
2	39282	22.554482333271	0.099998259828
2	39448	22.65448059306	0.099998259789
2	39614	22.754478852686	0.099998259626
2	39779	22.854477112012	0.099998259326
2	39942	22.954488370902	0.10001125889
2	40109	23.054486629212	0.09999825831
2	40272	23.154484886794	0.099998257582
2	40487	23.254486539973	0.100001653179
2	40647	23.354484795652	0.099998255679
2	40807	23.454483050149	0.099998254497
2	40967	23.554481303309	0.09999825316
2	41127	23.654479554979	0.09999825167
2	41284	23.754477804999	0.09999825002
2	41441	23.854489053212	0.100011248213
2	41598	23.954487299465	0.099998246253
2	41756	24.054485543612	0.099998244147
2	41910	24.154483785528	0.099998241916
2	42098	24.254482025119	0.099998239591
2	42252	24.354480262327	0.099998237208
2	42406	24.454478497134	0.099998234807
2	42560	24.554476729558	0.099998232424
2	42714	24.654487959649	0.100011230091
2	42868	24.754486187491	0.099998227842
2	43022	24.854484413186	0.099998225695
2	43176	24.954482636853	0.099998223667
2	43334	25.054480858618	0.099998221765
2	43488	25.15447907861	0.099998219992
2	43676	25.254477296953	0.099998218343
2	43830	25.354488513762	0.100011216809
2	43984	25.45448672914	0.099998215378
2	44138	25.554484943174	0.099998214034
2	44292	25.654483155942	0.099998212768
2	44446	25.754481367505	0.099998211563
2	44600	25.85447957791	0.099998210405
2	44754	25.954477787197	0.099998209287
2	44912	26.054488995392	0.100011208195
2	45066	26.154487202521	0.099998207129
2	45254	26.254485408603	0.099998206082
2	45408	26.354483613657	0.099998205054
2	45562	26.454481817703	0.099998204046
2	45716	26.554480020762	0.099998203059
2	45870	26.65447822286	0.099998202098
2	46024	26.754489424026	0.100011201166
2	46178	26.854487624293	0.099998200267
2	46332	26.954485823701	0.099998199408
2	46490	27.054484022289	0.099998198588
2	46644	27.154482220099	0.09999819781
2	46832	27.254480417175	0.099998197076
2	46986	27.354478613564	0.099998196389
2	47140	27.454476809308	0.099998195744
2	47294	27.554488004451	0.100011195143
2	47448	27.654486199033	0.099998194582
2	47602	27.754484393094	0.099998194061
2	47756	27.854482586672	0.099998193578
2	47910	27.954480779797	0.099998193125
2	48062	28.054478972503	0.099998192706
2	48216	28.154477164818	0.099998192315
2	48404	28.254488356769	0.100011191951
2	48558	28.354486548377	0.099998191608
2	48712	28.454484739667	0.09999819129
2	48866	28.554482930658	0.099998190991
2	49020	28.654481121371	0.099998190713
2	49174	28.75447931182	0.099998190449
2	49328	28.854477502023	0.099998190203
2	49482	28.954488691999	0.100011189976
2	49640	29.054486881758	0.099998189759
2	49794	29.154485071318	0.09999818956
2	49982	29.25448326069	0.099998189372
2	50136	29.354481449887	0.099998189197
2	50290	29.454479638921	0.099998189034
2	50444	29.554477827804	0.099998188883
2	50598	29.654489016545	0.100011188741
2	50752	29.754487205154	0.099998188609
2	50906	29.85448539364	0.099998188486
2	51060	29.954483582013	0.099998188373
2	51218	30.054481770279	0.099998188266
2	51372	30.154479958446	0.099998188167
2	51560	30.254478146522	0.099998188076
2	51714	30.35448933451	0.100011187988
2	51868	30.454487522418	0.099998187908
2	52022	30.554485710251	0.099998187833
2	52176	30.654483898013	0.099998187762
2	52330	30.754482085709	0.099998187696
2	52484	30.854480273342	0.099998187633
2	52638	30.954478460916	0.099998187574
2	52796	31.054476648435	0.099998187519
2	52950	31.154487835903	0.100011187468
2	53138	31.254486023321	0.099998187418
2	53292	31.354484210694	0.099998187373
2	53446	31.454482398022	0.099998187328
2	53600	31.554480585311	0.099998187289
2	53754	31.65447877256	0.099998187249
2	53908	31.754476959772	0.099998187212
2	54062	31.854488146949	0.100011187177
2	54216	31.954486334095	0.099998187146
2	54374	32.054484521209	0.099998187114
2	54528	32.154482708293	0.099998187084
2	54716	32.25448089535	0.099998187057
2	54870	32.354479082381	0.099998187031
2	55024	32.454477269387	0.099998187006
2	55178	32.554488456371	0.100011186984
2	55332	32.654486643333	0.099998186962
2	55486	32.754484830273	0.09999818694
2	55640	32.854483017198	0.099998186925
2	55794	32.954481204312	0.099998187114
2	55952	33.054479391695	0.099998187383
2	56106	33.15447757936	0.099998187665
2	56294	33.254488767584	0.100011188224
2	56448	33.354486956709	0.099998189125
2	56602	33.454485146584	0.099998189875
2	56756	33.55448333727	0.099998190686
2	56910	33.654481529464	0.099998192194
2	57064	33.7544797226	0.099998193136
2	57218	33.854477916038	0.099998193438
2	57372	33.954489109744	0.100011193706
2	57530	34.054487303372	0.099998193628
2	57684	34.154485495692	0.09999819232
2	57872	34.254483686409	0.099998190717
2	58026	34.354481876327	0.099998189918
2	58180	34.454480064462	0.099998188135
2	58334	34.554478251901	0.099998187439
2	58488	34.654489439004	0.100011187103
2	58642	34.754487625823	0.099998186819
2	58796	34.854485812511	0.099998186688
2	58950	34.954483999192	0.099998186681
2	59108	35.054482185866	0.099998186674
2	59262	35.154480372534	0.099998186668
2	59450	35.254478559196	0.099998186662
2	59604	35.354476745851	0.099998186655
2	59758	35.4544879325	0.100011186649
2	59912	35.554486119142	0.099998186642
2	60066	35.654484305781	0.099998186639
2	60220	35.754482492413	0.099998186632
2	60374	35.854480679041	0.099998186628
2	60528	35.954478865663	0.099998186622
2	60686	36.054477052281	0.099998186618
2	60840	36.154488238894	0.100011186613
2	61028	36.254486425503	0.099998186609
2	61182	36.35448461211	0.099998186607
2	61336	36.454482798712	0.099998186602
2	61490	36.55448098531	0.099998186598
2	61644	36.654479171905	0.099998186595
2	61798	36.754477358496	0.099998186591
2	61952	36.854488545084	0.100011186588
2	62106	36.954486731668	0.099998186584
2	62264	37.05448491825	0.099998186582
2	62418	37.154483104828	0.099998186578
2	62606	37.254481291403	0.099998186575
2	62760	37.354479477977	0.099998186574
2	62914	37.454477664547	0.09999818657
2	63068	37.554488851116	0.100011186569
2	63222	37.654487037682	0.099998186566
2	63376	37.754485224245	0.099998186563
2	63530	37.854483410806	0.099998186561
2	63684	37.954481597364	0.099998186558
2	63842	38.05447978392	0.099998186556
2	63996	38.154477970475	0.099998186555
2	64184	38.254489157027	0.100011186552
2	64338	38.354487343577	0.09999818655
2	64492	38.454485530126	0.099998186549
2	64646	38.554483716674	0.099998186548
2	64800	38.654481903219	0.099998186545
2	64954	38.754480089763	0.099998186544
2	65108	38.854478276304	0.099998186541
2	65262	38.954489462844	0.10001118654
2	65420	39.054487649383	0.099998186539
2	65574	39.154485835921	0.099998186538
2	65762	39.254484022458	0.099998186537
2	65916	39.354482208992	0.099998186534
2	66070	39.454480395525	0.099998186533
2	66224	39.554478582057	0.099998186532
2	66378	39.654476768587	0.09999818653
2	66532	39.754487955118	0.100011186531
2	66686	39.854486141647	0.099998186529
2	66840	39.954484328175	0.099998186528
2	66998	40.054482514701	0.099998186526
2	67152	40.154480701227	0.099998186526
2	67340	40.254478887752	0.099998186525
2	67494	40.354477074276	0.099998186524
2	67648	40.454488260799	0.100011186523
2	67802	40.554486447321	0.099998186522
2	67956	40.654484633842	0.099998186521
2	68110	40.754482820362	0.09999818652
2	68264	40.854481006881	0.099998186519
2	68418	40.954479193399	0.099998186518
2	68576	41.054477379916	0.099998186517
2	68730	41.154488566433	0.100011186517
2	68918	41.25448675295	0.099998186517
2	69072	41.354484939465	0.099998186515
2	69226	41.45448312598	0.099998186515
2	69380	41.554481312494	0.099998186514
2	69534	41.654479499008	0.099998186514
2	69688	41.75447768552	0.099998186512
2	69842	41.854488872032	0.100011186512
2	69996	41.954487058543	0.099998186511
2	70154	42.054485245054	0.099998186511
2	70308	42.154483431565	0.099998186511
2	70496	42.254481618075	0.09999818651
2	70650	42.354479804585	0.09999818651
2	70804	42.454477991094	0.099998186509
2	70958	42.554489177603	0.100011186509
2	71112	42.65448736411	0.099998186507
2	71266	42.754485550617	0.099998186507
2	71420	42.854483737125	0.099998186508
2	71574	42.954481923631	0.099998186506
2	71732	43.054480110136	0.099998186505
2	71886	43.154478296643	0.099998186507
2	72074	43.254489483148	0.100011186505
2	72228	43.354487669654	0.099998186506
2	72382	43.454485856158	0.099998186504
2	72536	43.554484042663	0.099998186505
2	72690	43.654482229167	0.099998186504
2	72844	43.754480415671	0.099998186504
2	72998	43.854478602174	0.099998186503
2	73152	43.954476788677	0.099998186503
2	73310	44.05448797518	0.100011186503
2	73464	44.154486161682	0.099998186502
2	73652	44.254484348184	0.099998186502
2	73806	44.354482534686	0.099998186502
2	73960	44.454480721188	0.099998186502
2	74114	44.554478907688	0.0999981865
2	74268	44.65447709419	0.099998186502
2	74422	44.754488280691	0.100011186501
2	74576	44.854486467191	0.0999981865
2	74730	44.954484653692	0.099998186501
2	74888	45.054482840192	0.0999981865
2	75042	45.154481026693	0.099998186501
2	75230	45.254479213191	0.099998186498
2	75384	45.354477399691	0.0999981865
2	75538	45.45448858619	0.100011186499
2	75692	45.554486772689	0.099998186499
2	75846	45.654484959187	0.099998186498
2	76000	45.754483145686	0.099998186499
2	76154	45.854481332184	0.099998186498
2	76308	45.954479518681	0.099998186497
2	76466	46.054477705179	0.099998186498
2	76620	46.154488891676	0.100011186497
2	76808	46.254487078174	0.099998186498
2	76962	46.354485264671	0.099998186497
2	77116	46.454483451168	0.099998186497
2	77270	46.554481637665	0.099998186497
2	77424	46.654479824162	0.099998186497
2	77578	46.754478010659	0.099998186497
2	77732	46.854489197155	0.100011186496
2	77886	46.954487383652	0.099998186497
2	78044	47.054485570148	0.099998186496
2	78198	47.154483756643	0.099998186495
2	78386	47.254481943139	0.099998186496
2	78540	47.354480129635	0.099998186496
2	78694	47.454478316132	0.099998186497
2	78848	47.554489502628	0.100011186496
2	79002	47.654487689124	0.099998186496
2	79156	47.754485875619	0.099998186495
2	79310	47.854484062113	0.099998186494
2	79464	47.954482248608	0.099998186495
2	79622	48.054480435104	0.099998186496
2	79776	48.1544786216	0.099998186496
2	79964	48.254476808095	0.099998186495
2	80118	48.35448799459	0.100011186495
2	80272	48.454486181084	0.099998186494
2	80426	48.554484367579	0.099998186495
2	80580	48.654482554073	0.099998186494
2	80734	48.754480740568	0.099998186495
2	80888	48.854478927062	0.099998186494
2	81042	48.954477113557	0.099998186495
2	81200	49.054488300052	0.100011186495
2	81354	49.154486486546	0.099998186494
2	81542	49.254484673032	0.099998186486
2	81696	49.354482859541	0.099998186509
2	81850	49.454481045772	0.099998186231
2	82004	49.554479233091	0.099998187319
2	82158	49.654477422759	0.099998189668
2	82312	49.754488615812	0.100011193053
2	82466	49.854486812687	0.099998196875
2	82620	49.954485012191	0.099998199504
2	82778	50.054483216874	0.099998204683
2	82932	50.154481428711	0.099998211837
2	83120	50.254479647058	0.099998218347
2	83274	50.354477872857	0.099998225799
2	83428	50.454489108592	0.100011235735
2	83582	50.554487356175	0.099998247583
2	83736	50.654485616343	0.099998260168
2	83890	50.754483889735	0.099998273392
2	84044	50.854482176908	0.099998287173
2	84198	50.954480478347	0.099998301439
2	84356	51.054478794476	0.099998316129
3	5941	4.129640859898	2
3	6193	4.229645807712	2
3	6363	4.329643985195	2
3	6533	4.429642162686	2
3	6703	4.529640340189	2
3	6873	4.629638517704	2
3	7043	4.729636695227	2
3	7213	4.829647872762	2
3	7383	4.929646050304	2
3	7557	5.029644227853	2
3	7727	5.129642405405	2
3	7979	5.229647541261	2
3	8149	5.32964571882	2
3	8319	5.429643896378	2
3	8489	5.529642073937	2
3	8653	5.629640251496	2
3	8823	5.729638429055	2
3	8993	5.829636606616	2
3	9163	5.929647784176	2
3	9337	6.029645961738	2
3	9507	6.129644139304	2
3	9759	6.229636467357	2
3	9929	6.329647644929	2
3	10099	6.429645822506	2
3	10269	6.529644000086	2
3	10439	6.629642177672	2
3	10609	6.729640355263	2
3	10779	6.82963853286	2
3	10949	6.929636710462	2
3	11123	7.029647888069	2
3	11293	7.129646065679	2
3	11545	7.229638588226	2
3	11715	7.329636765844	2
3	11885	7.429647943464	2
3	12055	7.529646121087	2
3	12225	7.629644298711	2
3	12395	7.729642476336	2
3	12565	7.829640653963	2
3	12735	7.92963883159	2
3	12909	8.029637009218	2
3	13079	8.129648186846	2
3	13331	8.22964090544	2
3	13501	8.32963908307	2
3	13671	8.429637260701	2
3	13841	8.529648438334	2
3	14011	8.629646615969	2
3	14181	8.729644793604	2
3	14351	8.82964297124	2
3	14521	8.929641148878	2
3	14695	9.029639326519	2
3	14865	9.129637504159	2
3	15117	9.22964341991	2
3	15287	9.329641597556	2
3	15457	9.429639775202	2
3	15627	9.529637952848	2
3	15797	9.629649130496	2
3	15967	9.729647308147	2
3	16137	9.829645485798	2
3	16307	9.929643664531	2
3	16481	10.029641841077	2
3	16651	10.129640018892	2
3	16903	10.229646135616	2
3	17079	10.329644315461	2
3	17249	10.429642497975	2
3	17413	10.529640673933	2
3	17589	10.629638854836	2
3	17753	10.729637035366	2
3	17923	10.829648212544	2
3	18093	10.9296463929	2
3	18267	11.029644573262	2
3	18437	11.129642753328	2
3	18689	11.229649068183	2
3	18859	11.32964724825	2
3	19028	11.429645428319	2
3	19198	11.52964360839	2
3	19368	11.629641788461	2
3	19538	11.729639968533	2
3	19708	11.829638148607	2
3	19877	11.929636328681	2
3	20051	12.029647508755	2
3	20220	12.129645688831	2
3	20471	12.229639204749	2
3	20641	12.329637384827	2
3	20811	12.429648564907	2
3	20981	12.529646744987	2
3	21150	12.629644925067	2
3	21318	12.729643105147	2
3	21487	12.829641285229	2
3	21656	12.929639465311	2
3	21828	13.029637645396	2
3	21996	13.12964882548	2
3	22247	13.229642542891	2
3	22414	13.329640722977	2
3	22582	13.429638903063	2
3	22748	13.52963708315	2
3	22914	13.629648263238	2
3	23080	13.729646443328	2
3	23247	13.829644623417	2
3	23413	13.929642803507	2
3	23584	14.029640983597	2
3	23751	14.129639163687	2
3	24186	14.229644442302	2
3	24352	14.329642622401	2
3	24518	14.429640802571	2
3	24684	14.529638982959	2
3	24850	14.629637163781	2
3	25016	14.729648345294	2
3	25182	14.829646527773	2
3	25348	14.92964471149	2
3	25518	15.029642896689	2
3	25684	15.129641083587	2
3	25923	15.229648204892	2
3	26089	15.329646395617	2
3	26255	15.429644588375	2
3	26421	15.529642783188	2
3	26587	15.629640980048	2
3	26753	15.729639178911	2
3	26919	15.829637379711	2
3	27085	15.929648582362	2
3	27255	16.02964678676	2
3	27421	16.129644992786	2
3	27648	16.229639316605	2
3	27814	16.329637525515	2
3	27980	16.429648735679	2
3	28146	16.529646946986	2
3	28312	16.629645159339	2
3	28478	16.729643372663	2
3	28644	16.829641586902	2
3	28810	16.929639802024	2
3	28980	17.029638018013	2
3	29146	17.12963623487	2
3	29370	17.229643761163	2
3	29536	17.329641979805	2
3	29702	17.429640199379	2
3	29868	17.529638419912	2
3	30034	17.629636641434	2
3	30200	17.729647863967	2
3	30366	17.829646087526	2
3	30532	17.929644312122	2
3	30765	18.02963761813	2
3	30931	18.129648844793	2
3	31155	18.229643573799	2
3	31321	18.329641802473	2
3	31487	18.429640032116	2
3	31653	18.529638262702	2
3	31819	18.629636494198	2
3	31985	18.729647726575	2
3	32151	18.829645959802	2
3	32317	18.929644193854	2
3	32487	19.029642428703	2
3	32653	19.12964066433	2
3	32877	19.22964859612	2
3	33043	19.329646833248	2
3	33209	19.429645071107	2
3	33375	19.529643309687	2
3	33541	19.629641548983	2
3	33707	19.729639788987	2
3	33873	19.829638029695	2
3	34039	19.9296362711	2
3	34272	20.029642593492	2
3	34438	20.12964083628	2
3	34662	20.229648970961	2
3	34828	20.329647215105	2
3	34994	20.429645459914	2
3	35160	20.52964370538	2
3	35326	20.629641951493	2
3	35492	20.729640198238	2
3	35658	20.829638445606	2
3	35824	20.929636693585	2
3	35994	21.02964794216	2
3	36160	21.12964619132	2
3	36384	21.229641528977	2
3	36550	21.329639779271	2
3	36716	21.429638030116	2
3	36882	21.5296362815	2
3	37048	21.629647533412	2
3	37214	21.729645785844	2
3	37380	21.829644038788	2
3	38224	21.95448249291	2
3	38394	22.054480751385	2
3	38560	22.15447901029	2
3	38784	22.254487554137	2
3	38950	22.354485813695	2
3	39116	22.454484073443	2
3	39282	22.554482333271	2
3	39448	22.65448059306	2
3	39614	22.754478852686	2
3	39779	22.854477112012	2
3	39942	22.954488370902	2
3	40109	23.054486629212	2
3	40272	23.154484886794	2
3	40487	23.254486539973	2
3	40647	23.354484795652	2
3	40807	23.454483050149	2
3	40967	23.554481303309	2
3	41127	23.654479554979	2
3	41284	23.754477804999	2
3	41441	23.854489053212	2
3	41598	23.954487299465	2
3	41756	24.054485543612	2
3	41910	24.154483785528	2
3	42098	24.254482025119	2
3	42252	24.354480262327	2
3	42406	24.454478497134	2
3	42560	24.554476729558	2
3	42714	24.654487959649	2
3	42868	24.754486187491	2
3	43022	24.854484413186	2
3	43176	24.954482636853	2
3	43334	25.054480858618	2
3	43488	25.15447907861	2
3	43676	25.254477296953	2
3	43830	25.354488513762	2
3	43984	25.45448672914	2
3	44138	25.554484943174	2
3	44292	25.654483155942	2
3	44446	25.754481367505	2
3	44600	25.85447957791	2
3	44754	25.954477787197	2
3	44912	26.054488995392	2
3	45066	26.154487202521	2
3	45254	26.254485408603	2
3	45408	26.354483613657	2
3	45562	26.454481817703	2
3	45716	26.554480020762	2
3	45870	26.65447822286	2
3	46024	26.754489424026	2
3	46178	26.854487624293	2
3	46332	26.954485823701	2
3	46490	27.054484022289	2
3	46644	27.154482220099	2
3	46832	27.254480417175	2
3	46986	27.354478613564	2
3	47140	27.454476809308	2
3	47294	27.554488004451	2
3	47448	27.654486199033	2
3	47602	27.754484393094	2
3	47756	27.854482586672	2
3	47910	27.954480779797	2
3	48062	28.054478972503	2
3	48216	28.154477164818	2
3	48404	28.254488356769	2
3	48558	28.354486548377	2
3	48712	28.454484739667	2
3	48866	28.554482930658	2
3	49020	28.654481121371	2
3	49174	28.75447931182	2
3	49328	28.854477502023	2
3	49482	28.954488691999	2
3	49640	29.054486881758	2
3	49794	29.154485071318	2
3	49982	29.25448326069	2
3	50136	29.354481449887	2
3	50290	29.454479638921	2
3	50444	29.554477827804	2
3	50598	29.654489016545	2
3	50752	29.754487205154	2
3	50906	29.85448539364	2
3	51060	29.954483582013	2
3	51218	30.054481770279	2
3	51372	30.154479958446	2
3	51560	30.254478146522	2
3	51714	30.35448933451	2
3	51868	30.454487522418	2
3	52022	30.554485710251	2
3	52176	30.654483898013	2
3	52330	30.754482085709	2
3	52484	30.854480273342	2
3	52638	30.954478460916	2
3	52796	31.054476648435	2
3	52950	31.154487835903	2
3	53138	31.254486023321	2
3	53292	31.354484210694	2
3	53446	31.454482398022	2
3	53600	31.554480585311	2
3	53754	31.65447877256	2
3	53908	31.754476959772	2
3	54062	31.854488146949	2
3	54216	31.954486334095	2
3	54374	32.054484521209	2
3	54528	32.154482708293	2
3	54716	32.25448089535	2
3	54870	32.354479082381	2
3	55024	32.454477269387	2
3	55178	32.554488456371	2
3	55332	32.654486643333	2
3	55486	32.754484830273	2
3	55640	32.854483017198	2
3	55794	32.954481204312	2
3	55952	33.054479391695	2
3	56106	33.15447757936	2
3	56294	33.254488767584	2
3	56448	33.354486956709	2
3	56602	33.454485146584	2
3	56756	33.55448333727	2
3	56910	33.654481529464	2
3	57064	33.7544797226	2
3	57218	33.854477916038	2
3	57372	33.954489109744	2
3	57530	34.054487303372	2
3	57684	34.154485495692	2
3	57872	34.254483686409	2
3	58026	34.354481876327	2
3	58180	34.454480064462	2
3	58334	34.554478251901	2
3	58488	34.654489439004	2
3	58642	34.754487625823	2
3	58796	34.854485812511	2
3	58950	34.954483999192	2
3	59108	35.054482185866	2
3	59262	35.154480372534	2
3	59450	35.254478559196	2
3	59604	35.354476745851	2
3	59758	35.4544879325	2
3	59912	35.554486119142	2
3	60066	35.654484305781	2
3	60220	35.754482492413	2
3	60374	35.854480679041	2
3	60528	35.954478865663	2
3	60686	36.054477052281	2
3	60840	36.154488238894	2
3	61028	36.254486425503	2
3	61182	36.35448461211	2
3	61336	36.454482798712	2
3	61490	36.55448098531	2
3	61644	36.654479171905	2
3	61798	36.754477358496	2
3	61952	36.854488545084	2
3	62106	36.954486731668	2
3	62264	37.05448491825	2
3	62418	37.154483104828	2
3	62606	37.254481291403	2
3	62760	37.354479477977	2
3	62914	37.454477664547	2
3	63068	37.554488851116	2
3	63222	37.654487037682	2
3	63376	37.754485224245	2
3	63530	37.854483410806	2
3	63684	37.954481597364	2
3	63842	38.05447978392	2
3	63996	38.154477970475	2
3	64184	38.254489157027	2
3	64338	38.354487343577	2
3	64492	38.454485530126	2
3	64646	38.554483716674	2
3	64800	38.654481903219	2
3	64954	38.754480089763	2
3	65108	38.854478276304	2
3	65262	38.954489462844	2
3	65420	39.054487649383	2
3	65574	39.154485835921	2
3	65762	39.254484022458	2
3	65916	39.354482208992	2
3	66070	39.454480395525	2
3	66224	39.554478582057	2
3	66378	39.654476768587	2
3	66532	39.754487955118	2
3	66686	39.854486141647	2
3	66840	39.954484328175	2
3	66998	40.054482514701	2
3	67152	40.154480701227	2
3	67340	40.254478887752	2
3	67494	40.354477074276	2
3	67648	40.454488260799	2
3	67802	40.554486447321	2
3	67956	40.654484633842	2
3	68110	40.754482820362	2
3	68264	40.854481006881	2
3	68418	40.954479193399	2
3	68576	41.054477379916	2
3	68730	41.154488566433	2
3	68918	41.25448675295	2
3	69072	41.354484939465	2
3	69226	41.45448312598	2
3	69380	41.554481312494	2
3	69534	41.654479499008	2
3	69688	41.75447768552	2
3	69842	41.854488872032	2
3	69996	41.954487058543	2
3	70154	42.054485245054	2
3	70308	42.154483431565	2
3	70496	42.254481618075	2
3	70650	42.354479804585	2
3	70804	42.454477991094	2
3	70958	42.554489177603	2
3	71112	42.65448736411	2
3	71266	42.754485550617	2
3	71420	42.854483737125	2
3	71574	42.954481923631	2
3	71732	43.054480110136	2
3	71886	43.154478296643	2
3	72074	43.254489483148	2
3	72228	43.354487669654	2
3	72382	43.454485856158	2
3	72536	43.554484042663	2
3	72690	43.654482229167	2
3	72844	43.754480415671	2
3	72998	43.854478602174	2
3	73152	43.954476788677	2
3	73310	44.05448797518	2
3	73464	44.154486161682	2
3	73652	44.254484348184	2
3	73806	44.354482534686	2
3	73960	44.454480721188	2
3	74114	44.554478907688	2
3	74268	44.65447709419	2
3	74422	44.754488280691	2
3	74576	44.854486467191	2
3	74730	44.954484653692	2
3	74888	45.054482840192	2
3	75042	45.154481026693	2
3	75230	45.254479213191	2
3	75384	45.354477399691	2
3	75538	45.45448858619	2
3	75692	45.554486772689	2
3	75846	45.654484959187	2
3	76000	45.754483145686	2
3	76154	45.854481332184	2
3	76308	45.954479518681	2
3	76466	46.054477705179	2
3	76620	46.154488891676	2
3	76808	46.254487078174	2
3	76962	46.354485264671	2
3	77116	46.454483451168	2
3	77270	46.554481637665	2
3	77424	46.654479824162	2
3	77578	46.754478010659	2
3	77732	46.854489197155	2
3	77886	46.954487383652	2
3	78044	47.054485570148	2
3	78198	47.154483756643	2
3	78386	47.254481943139	2
3	78540	47.354480129635	2
3	78694	47.454478316132	2
3	78848	47.554489502628	2
3	79002	47.654487689124	2
3	79156	47.754485875619	2
3	79310	47.854484062113	2
3	79464	47.954482248608	2
3	79622	48.054480435104	2
3	79776	48.1544786216	2
3	79964	48.254476808095	2
3	80118	48.35448799459	2
3	80272	48.454486181084	2
3	80426	48.554484367579	2
3	80580	48.654482554073	2
3	80734	48.754480740568	2
3	80888	48.854478927062	2
3	81042	48.954477113557	2
3	81200	49.054488300052	2
3	81354	49.154486486546	2
3	81542	49.254484673032	2
3	81696	49.354482859541	2
3	81850	49.454481045772	2
3	82004	49.554479233091	2
3	82158	49.654477422759	2
3	82312	49.754488615812	2
3	82466	49.854486812687	2
3	82620	49.954485012191	2
3	82778	50.054483216874	2
3	82932	50.154481428711	2
3	83120	50.254479647058	2
3	83274	50.354477872857	2
3	83428	50.454489108592	2
3	83582	50.554487356175	2
3	83736	50.654485616343	2
3	83890	50.754483889735	2
3	84044	50.854482176908	2
3	84198	50.954480478347	2
3	84356	51.054478794476	2
4	5978	4.154477889457	0.099998177476
4	6230	4.254482837275	0.100004947818
4	6400	4.354481014762	0.099998177487
4	6570	4.454479192258	0.099998177496
4	6740	4.554477369765	0.099998177507
4	6910	4.654488547282	0.100011177517
4	7080	4.754486724809	0.099998177527
4	7250	4.854484902346	0.099998177537
4	7420	4.95448307989	0.099998177544
4	7594	5.054481257439	0.099998177549
4	7764	5.154479434991	0.099998177552
4	8016	5.254484570849	0.100005135858
4	8186	5.354482748408	0.099998177559
4	8356	5.454480925967	0.099998177559
4	8526	5.554479103526	0.099998177559
4	8696	5.654477281087	0.099998177561
4	8866	5.754488458647	0.10001117756
4	9036	5.854486636208	0.099998177561
4	9206	5.95448481377	0.099998177562
4	9380	6.054482991334	0.099998177564
4	9550	6.154481168901	0.099998177567
4	9802	6.254486496957	0.100005328056
4	9972	6.35448467453	0.099998177573
4	10142	6.454482852109	0.099998177579
4	10312	6.554481029692	0.099998177583
4	10482	6.654479207279	0.099998177587
4	10652	6.754477384872	0.099998177593
4	10822	6.85448856247	0.100011177598
4	10992	6.954486740073	0.099998177603
4	11166	7.054484917681	0.099998177608
4	11336	7.154483095293	0.099998177612
4	11588	7.254488617839	0.100005522546
4	11758	7.354486795458	0.099998177619
4	11928	7.454484973078	0.09999817762
4	12098	7.554483150702	0.099998177624
4	12268	7.654481328326	0.099998177624
4	12438	7.754479505951	0.099998177625
4	12608	7.854477683578	0.099998177627
4	12778	7.954488861206	0.100011177628
4	12952	8.054487038834	0.099998177628
4	13122	8.154485216462	0.099998177628
4	13374	8.254477935055	0.099992718593
4	13544	8.354489112685	0.10001117763
4	13714	8.454487290318	0.099998177633
4	13884	8.554485467951	0.099998177633
4	14054	8.654483645585	0.099998177634
4	14224	8.75448182322	0.099998177635
[...]
11	17638	10.654488942601	3
11	17808	10.754487122472	3
11	17978	10.854485301884	3
11	18148	10.954483483234	3
11	18322	11.0544816633	3
11	18492	11.154479843366	3
11	18744	11.254486158222	3
11	18914	11.354484338289	3
11	19083	11.454482518359	3
11	19253	11.55448069843	3
11	19423	11.654478878502	3
11	19593	11.754477058574	3
11	19763	11.854488238648	3
11	19932	11.954486418722	3
11	20105	12.054484598797	3
11	20275	12.154482778873	3
11	20526	12.254489294793	3
11	20696	12.354487474871	3
11	20866	12.454485654951	3
11	21036	12.554483835031	3
11	21205	12.654482015111	3
11	21373	12.754480195192	3
11	21542	12.854478375274	3
11	21710	12.954489555357	3
11	21883	13.054487735441	3
11	22051	13.154485915525	3
11	22302	13.254479632938	3
11	22468	13.354477813024	3
11	22636	13.45448899311	3
11	22802	13.554487173198	3
11	22968	13.654485353286	3
11	23134	13.754483533375	3
11	23301	13.854481713465	3
11	23467	13.954479893555	3
11	23638	14.054478073645	3
11	23805	14.154489253736	3
11	24240	14.254481532352	3
11	24406	14.354479712484	3
11	24572	14.454477892773	3
11	24738	14.55448907341	3
11	24904	14.654487254639	3
11	25070	14.754485436726	3
11	25236	14.854483619946	3
11	25402	14.954481804553	3
11	25572	15.054479990772	3
11	25738	15.154478178785	3
11	25977	15.25448530127	3
11	26143	15.354483493205	3
11	26309	15.454481687175	3
11	26475	15.554479883177	3
11	26641	15.654478081181	3
11	26807	15.754489281128	3
11	26973	15.854487482945	3
11	27139	15.95448568654	3
11	27309	16.054483891807	3
11	27475	16.154482098631	3
11	27702	16.254489423176	3
11	27868	16.354487632748	3
11	28034	16.454485843518	3
11	28200	16.554484055385	3
11	28366	16.654482268262	3
11	28532	16.754480482086	3
11	28698	16.854478696811	3
11	28864	16.954476912414	3
11	29034	17.054488128884	3
11	29200	17.154486346229	3
11	29424	17.254480873021	3
11	29590	17.354479092172	3
11	29756	17.454477312265	3
11	29922	17.554488533328	3
11	30088	17.654486755386	3
11	30254	17.754484978457	3
11	30420	17.854483202554	3
11	30589	17.954481427683	3
11	30819	18.054487734215	3
11	30985	18.154485961391	3
11	31209	18.254480690896	3
11	31375	18.354478920053	3
11	31541	18.454477150164	3
11	31707	18.554488381198	3
11	31873	18.654486613128	3
11	32039	18.754484845921	3
11	32205	18.854483079551	3
11	32371	18.954481313991	3
11	32541	19.054479549219	3
11	32707	19.154477785214	3
11	32931	19.254485717364	3
11	33097	19.354483954845	3
11	33263	19.454482193052	3
11	33429	19.554480431976	3
11	33595	19.654478671611	3
11	33761	19.754476911951	3
11	33927	19.854488152991	3
11	34156	19.954481475017	3
11	34326	20.054479717442	3
11	34492	20.15447796055	3
11	34716	20.254486095548	3
11	34882	20.354484340002	3
11	35048	20.454482585117	3
11	35214	20.554480830883	3
11	35380	20.654479077287	3
11	35546	20.754477324319	3
11	35712	20.854488571968	3
11	35878	20.954486820219	3
11	36048	21.054485069061	3
11	36214	21.154483318482	3
11	36438	21.254478656393	3
11	36604	21.354476906937	3
11	36770	21.454488158025	3
11	36936	21.554486409647	3
11	37102	21.654484661793	3
11	37268	21.754482914455	3
11	37434	21.854481167623	3
11	38188	21.929645444123	3
11	38358	22.029643701322	3
11	38524	22.129641960224	3
11	38748	22.229637504073	3
11	38914	22.329648763645	3
11	39080	22.429647023413	3
11	39246	22.529645283271	3
11	39412	22.629643543098	3
11	39578	22.729641802772	3
11	39744	22.829640062154	3
11	39907	22.929638321107	3
11	40074	23.029636579488	3
11	40237	23.129647837148	3
11	40452	23.229636490411	3
11	40614	23.32964774618	3
11	40774	23.429646000772	3
11	40934	23.529644254033	3
11	41094	23.629642505806	3
11	41251	23.729640755935	3
11	41408	23.82963900426	3
11	41565	23.929637250626	3
11	41723	24.029648494885	3
11	41877	24.129646736907	3
11	42065	24.229644976598	3
11	42219	24.329643213897	3
11	42373	24.429641448784	3
11	42527	24.529639681279	3
11	42681	24.629637911432	3
11	42835	24.729649139326	3
11	42989	24.829647365068	3
11	43143	24.929645588775	3
11	43301	25.029643810577	3
11	43455	25.129642030604	3
11	43643	25.229640248979	3
11	43797	25.329638465821	3
11	43951	25.429636681234	3
11	44105	25.529647895304	3
11	44259	25.629646108108	3
11	44413	25.729644319711	3
11	44567	25.829642530157	3
11	44721	25.929640739485	3
11	44879	26.029638947724	3
11	45033	26.129637154897	3
11	45221	26.229648361022	3
11	45375	26.329646566119	3
11	45529	26.429644770205	3
11	45683	26.529642973305	3
11	45837	26.62964117544	3
11	45991	26.729639376643	3
11	46145	26.829637576945	3
11	46299	26.929648776385	3
11	46457	27.029646975003	3
11	46611	27.129645172841	3
11	46799	27.229643369945	3
11	46953	27.329641566359	3
11	47107	27.429639762128	3
11	47261	27.529637957295	3
11	47415	27.629649151899	3
11	47569	27.729647345983	3
11	47717	27.829645539583	3
11	47871	27.929643732731	3
11	48029	28.029641925457	3
11	48183	28.129640117794	3
11	48371	28.229638309766	3
11	48525	28.329636501395	3
11	48679	28.429647692705	3
11	48833	28.529645883717	3
11	48987	28.629644074449	3
11	49141	28.729642264918	3
11	49295	28.829640455141	3
11	49449	28.929638645135	3
11	49607	29.029636834912	3
11	49761	29.129648024489	3
11	49949	29.229646213878	3
11	50103	29.329644403091	3
11	50257	29.429642592142	3
11	50411	29.52964078104	3
11	50565	29.629638969796	3
11	50719	29.729637158418	3
11	50873	29.829648346918	3
11	51027	29.929646535305	3
11	51185	30.029644723584	3
11	51339	30.129642911764	3
11	51527	30.229641099852	3
11	51681	30.329639287852	3
11	51835	30.429637475772	3
11	51989	30.529648663617	3
11	52143	30.62964685139	3
11	52297	30.729645039097	3
11	52451	30.829643226741	3
11	52605	30.929641414326	3
11	52763	31.029639601855	3
11	52917	31.129637789332	3
11	53105	31.229648976761	3
11	53259	31.329647164143	3
11	53413	31.429645351481	3
11	53567	31.529643538778	3
11	53721	31.629641726037	3
11	53875	31.729639913257	3
11	54029	31.829638100443	3
11	54183	31.929636287596	3
11	54341	32.029647474718	3
11	54495	32.12964566181	3
11	54683	32.229643848874	3
11	54837	32.329642035912	3
11	54991	32.429640222926	3
11	55145	32.529638409916	3
11	55299	32.629636596885	3
11	55453	32.729647783831	3
11	55607	32.829645970757	3
11	55761	32.929644157692	3
11	55919	33.029642344872	3
11	56073	33.129640532315	3
11	56261	33.229638720341	3
11	56415	33.329636909139	3
11	56569	33.429648098673	3
11	56723	33.52964628898	3
11	56877	33.629644480805	3
11	57031	33.729642673771	3
11	57185	33.829640867478	3
11	57339	33.92963906148	3
11	57497	34.029637255566	3
11	57651	34.129648448463	3
11	57839	34.229646639517	3
11	57993	34.329644829592	3
11	58147	34.429643017927	3
11	58301	34.529641205425	3
11	58455	34.629639392564	3
11	58609	34.72963757946	3
11	58763	34.829648766169	3
11	58917	34.929646952854	3
11	59075	35.029645139531	3
11	59229	35.129643326203	3
11	59417	35.229641512868	3
11	59571	35.329639699526	3
11	59725	35.429637886178	3
11	59879	35.529649072823	3
11	60033	35.629647259465	3
11	60187	35.729645446101	3
11	60341	35.829643632731	3
11	60495	35.929641819356	3
11	60653	36.029640005977	3
11	60807	36.129638192592	3
11	60995	36.229636379204	3
11	61149	36.329647565813	3
11	61303	36.429645752418	3
11	61457	36.529643939018	3
11	61611	36.629642125616	3
11	61765	36.729640312209	3
11	61919	36.829638498799	3
11	62073	36.929636685385	3
11	62231	37.029647871969	3
11	62385	37.12964605855	3
11	62573	37.229644245126	3
11	62727	37.329642431702	3
11	62881	37.429640618274	3
11	63035	37.529638804845	3
11	63189	37.629636991413	3
11	63343	37.729648177978	3
11	63497	37.829646364541	3
11	63651	37.9296445511	3
11	63809	38.029642737658	3
11	63963	38.129640924214	3
11	64151	38.229639110768	3
11	64305	38.329637297319	3
11	64459	38.42964848387	3
11	64613	38.529646670418	3
11	64767	38.629644856965	3
11	64921	38.72964304351	3
11	65075	38.829641230053	3
11	65229	38.929639416595	3
11	65387	39.029637603135	3
11	65541	39.129648789673	3
11	65729	39.229646976211	3
11	65883	39.329645162747	3
11	66037	39.429643349281	3
11	66191	39.529641535814	3
11	66345	39.629639722345	3
11	66499	39.729637908877	3
11	66653	39.829649095407	3
11	66807	39.929647281936	3
11	66965	40.029645468463	3
11	67119	40.12964365499	3
11	67307	40.229641841516	3
11	67461	40.32964002804	3
11	67615	40.429638214564	3
11	67769	40.529636401088	3
11	67923	40.629647587609	3
11	68077	40.72964577413	3
11	68231	40.82964396065	3
11	68385	40.929642147168	3
11	68543	41.029640333686	3
11	68697	41.129638520204	3
11	68885	41.229636706722	3
11	69039	41.329647893238	3
11	69193	41.429646079753	3
11	69347	41.529644266268	3
11	69501	41.629642452782	3
11	69655	41.729640639295	3
11	69809	41.829638825808	3
11	69963	41.929637012319	3
11	70121	42.02964819883	3
11	70275	42.129646385342	3
11	70463	42.229644571852	3
11	70617	42.329642758363	3
11	70771	42.429640944872	3
11	70925	42.529639131382	3
11	71079	42.629637317889	3
11	71233	42.729648504397	3
11	71387	42.829646690905	3
11	71541	42.929644877412	3
11	71699	43.029643063918	3
11	71853	43.129641250424	3
11	72041	43.22963943693	3
11	72195	43.329637623436	3
11	72349	43.429648809941	3
11	72503	43.529646996446	3
11	72657	43.629645182951	3
11	72811	43.729643369455	3
11	72965	43.829641555959	3
11	73119	43.929639742462	3
11	73277	44.029637928965	3
11	73431	44.129649115467	3
11	73619	44.22964730197	3
11	73773	44.329645488472	3
11	73927	44.429643674974	3
11	74081	44.529641861475	3
11	74235	44.629640047977	3
11	74389	44.729638234478	3
11	74543	44.829636420978	3
11	74697	44.92964760748	3
11	74855	45.02964579398	3
11	75009	45.129643980481	3
11	75197	45.22964216698	3
11	75351	45.329640353479	3
11	75505	45.429638539978	3
11	75659	45.529636726478	3
11	75813	45.629647912976	3
11	75967	45.729646099475	3
11	76121	45.829644285973	3
11	76275	45.929642472471	3
11	76433	46.029640658968	3
11	76587	46.129638845466	3
11	76775	46.229637031964	3
11	76929	46.329648218462	3
11	77083	46.429646404959	3
11	77237	46.529644591456	3
11	77391	46.629642777953	3
11	77545	46.72964096445	3
11	77699	46.829639150946	3
11	77853	46.929637337443	3
11	78011	47.02964852394	3
11	78165	47.129646710435	3
11	78353	47.229644896931	3
11	78507	47.329643083427	3
11	78661	47.429641269924	3
11	78815	47.529639456421	3
11	78969	47.629637642916	3
11	79123	47.729648829411	3
11	79277	47.829647015906	3
11	79431	47.929645202401	3
11	79589	48.029643388897	3
11	79743	48.129641575393	3
11	79931	48.229639761888	3
11	80085	48.329637948383	3
11	80239	48.429649134877	3
11	80393	48.529647321373	3
11	80547	48.629645507867	3
11	80701	48.729643694361	3
11	80855	48.829641880856	3
11	81009	48.929640067351	3
11	81167	49.029638253845	3
11	81321	49.12963644034	3
11	81509	49.229647626834	3
11	81663	49.329645813345	3
11	81817	49.429644000062	3
11	81971	49.529642186551	3
11	82125	49.629640374122	3
11	82279	49.729638565487	3
11	82433	49.829636761148	3
11	82587	49.929647960388	3
11	82745	50.02964616462	3
11	82899	50.129644374241	3
11	83081	50.229642590426	3
11	83235	50.329640813637	3
11	83389	50.429639046371	3
11	83543	50.529637290737	3
11	83697	50.629648547519	3
11	83851	50.729646817381	3
11	84005	50.829645100898	3
11	84159	50.929643398575	3
11	84317	51.029641710848	3
11	84471	51.129640038105	3
12	7442	5	0
12	9228	6	0
12	11014	7	0
12	12800	8	0
12	14586	9	0
12	16372	10	0
12	18158	11	0
12	19942	12	0
12	21719	13	0
12	23476	14	0
12	25411	15	0
12	27148	16	0
12	28873	17	0
12	30658	18	0
12	32380	19	0
12	34165	20	0
12	35887	21	0
12	38239	22	0
12	39955	23	0
12	41611	24	0
12	43189	25	0
12	44767	26	0
12	46345	27	0
12	47923	28	0
12	49501	29	0
12	51079	30	0
12	52657	31	0
12	54235	32	0
12	55813	33	0
12	57391	34	0
12	58969	35	0
12	60547	36	0
12	62125	37	0
12	63703	38	0
12	65281	39	0
12	66859	40	0
12	68437	41	0
12	70015	42	0
12	71593	43	0
12	73171	44	0
12	74749	45	0
12	76327	46	0
12	77905	47	0
12	79483	48	0
12	81061	49	0
12	82639	50	0
12	84217	51	0
13	7442	5	0.012586
13	9228	6	0.012586
13	11014	7	0.012586
13	12800	8	0.012586
13	14586	9	0.012586
13	16372	10	0.012586
13	18158	11	0.012586
13	19942	12	0.012586
13	21719	13	0.012586
13	23476	14	0.012586
13	25411	15	0.013021360196
13	27148	16	0.012586
13	28873	17	0.012586
13	30658	18	0.01273
13	32380	19	0.012586
13	34165	20	0.01273
13	35887	21	0.012586
13	38239	22	0.014033031552
13	39955	23	0.012586
13	41611	24	0.01249
13	43189	25	0.01249
13	44767	26	0.01249
13	46345	27	0.01249
13	47923	28	0.01249
13	49501	29	0.01249
13	51079	30	0.01249
13	52657	31	0.01249
13	54235	32	0.01249
13	55813	33	0.01249
13	57391	34	0.01249
13	58969	35	0.01249
13	60547	36	0.01249
13	62125	37	0.01249
13	63703	38	0.01249
13	65281	39	0.01249
13	66859	40	0.01249
13	68437	41	0.01249
13	70015	42	0.01249
13	71593	43	0.01249
13	73171	44	0.01249
13	74749	45	0.01249
13	76327	46	0.01249
13	77905	47	0.01249
13	79483	48	0.01249
13	81061	49	0.01249
13	82639	50	0.01249
13	84217	51	0.01249
14	7442	5	0
14	9228	6	0
14	11014	7	0
14	12800	8	0
14	14586	9	0
14	16372	10	0
14	18158	11	0
14	19942	12	0
14	21719	13	0
14	23476	14	0
14	25411	15	0
14	27148	16	0
14	28873	17	0
14	30658	18	0
14	32380	19	0
14	34165	20	0
14	35887	21	0
14	38239	22	0
14	39955	23	0
14	41611	24	0
14	43189	25	0
14	44767	26	0
14	46345	27	0
14	47923	28	0
14	49501	29	0
14	51079	30	0
14	52657	31	0
14	54235	32	0
14	55813	33	0
14	57391	34	0
14	58969	35	0
14	60547	36	0
14	62125	37	0
14	63703	38	0
14	65281	39	0
14	66859	40	0
14	68437	41	0
14	70015	42	0
14	71593	43	0
14	73171	44	0
14	74749	45	0
14	76327	46	0
14	77905	47	0
14	79483	48	0
14	81061	49	0
14	82639	50	0
14	84217	51	0
15	7443	5	1
15	9229	6	1
15	11015	7	1
15	12801	8	1
15	14587	9	1
15	16373	10	1
15	18159	11	1
15	19943	12	1
15	21720	13	1
15	23477	14	1
15	25412	15	1
15	27149	16	1
15	28874	17	1
15	30659	18	1
15	32381	19	1
15	34166	20	1
15	35888	21	1
15	38240	22	1
15	39956	23	1
15	41612	24	1
15	43190	25	1
15	44768	26	1
15	46346	27	1
15	47924	28	1
15	49502	29	1
15	51080	30	1
15	52658	31	1
15	54236	32	1
15	55814	33	1
15	57392	34	1
15	58970	35	1
15	60548	36	1
15	62126	37	1
15	63704	38	1
15	65282	39	1
15	66860	40	1
15	68438	41	1
15	70016	42	1
15	71594	43	1
15	73172	44	1
15	74750	45	1
15	76328	46	1
15	77906	47	1
15	79484	48	1
15	81062	49	1
15	82640	50	1
15	84218	51	1
16	7443	5	0.012586
16	9229	6	0.012586
16	11015	7	0.012586
16	12801	8	0.012586
16	14587	9	0.012586
16	16373	10	0.012586
16	18159	11	0.012586
16	19943	12	0.012586
16	21720	13	0.012586
16	23477	14	0.012586
16	25412	15	0.012954
16	27149	16	0.012586
16	28874	17	0.012586
16	30659	18	0.012731080374
16	32381	19	0.012586
16	34166	20	0.012698
16	35888	21	0.012586
16	38240	22	0.01380308885
16	39956	23	0.012586
16	41612	24	0.012586
16	43190	25	0.01249
16	44768	26	0.01249
16	46346	27	0.01249
16	47924	28	0.01249
16	49502	29	0.01249
16	51080	30	0.01249
16	52658	31	0.01249
16	54236	32	0.01249
16	55814	33	0.01249
16	57392	34	0.01249
16	58970	35	0.01249
16	60548	36	0.01249
16	62126	37	0.01249
16	63704	38	0.01249
16	65282	39	0.01249
16	66860	40	0.01249
16	68438	41	0.01249
16	70016	42	0.01249
16	71594	43	0.01249
16	73172	44	0.01249
16	74750	45	0.01249
16	76328	46	0.01249
16	77906	47	0.01249
16	79484	48	0.01249
16	81062	49	0.01249
16	82640	50	0.01249
16	84218	51	0.01249
17	7443	5	0
17	9229	6	0
17	11015	7	0
17	12801	8	0
17	14587	9	0
17	16373	10	0
17	18159	11	0
17	19943	12	0
17	21720	13	0
17	23477	14	0
17	25412	15	0
17	27149	16	0
17	28874	17	0
17	30659	18	0
17	32381	19	0
17	34166	20	0
17	35888	21	0
17	38240	22	0
17	39956	23	0
17	41612	24	0
17	43190	25	0
17	44768	26	0
17	46346	27	0
17	47924	28	0
17	49502	29	0
17	51080	30	0
17	52658	31	0
17	54236	32	0
17	55814	33	0
17	57392	34	0
17	58970	35	0
17	60548	36	0
17	62126	37	0
17	63704	38	0
17	65282	39	0
17	66860	40	0
17	68438	41	0
17	70016	42	0
17	71594	43	0
17	73172	44	0
17	74750	45	0
17	76328	46	0
17	77906	47	0
17	79484	48	0
17	81062	49	0
17	82640	50	0
17	84218	51	0
18	7444	5	2
18	9230	6	2
18	11016	7	2
18	12802	8	2
18	14588	9	2
18	16374	10	2
18	18160	11	2
18	19944	12	2
18	21721	13	2
18	23478	14	2
18	25413	15	2
18	27150	16	2
18	28875	17	2
18	30660	18	2
18	32382	19	2
18	34167	20	2
18	35889	21	2
18	38241	22	2
18	39957	23	2
18	41613	24	2
18	43191	25	2
18	44769	26	2
18	46347	27	2
18	47925	28	2
18	49503	29	2
18	51081	30	2
18	52659	31	2
18	54237	32	2
18	55815	33	2
18	57393	34	2
18	58971	35	2
18	60549	36	2
18	62127	37	2
18	63705	38	2
18	65283	39	2
18	66861	40	2
18	68439	41	2
18	70017	42	2
18	71595	43	2
18	73173	44	2
18	74751	45	2
18	76329	46	2
18	77907	47	2
18	79485	48	2
18	81063	49	2
18	82641	50	2
18	84219	51	2
19	7444	5	0.012586
19	9230	6	0.012586
19	11016	7	0.012586
19	12802	8	0.012586
19	14588	9	0.012586
19	16374	10	0.012586
19	18160	11	0.012586
19	19944	12	0.012586
19	21721	13	0.012586
19	23478	14	0.012586
19	25413	15	0.012954
19	27150	16	0.012586
19	28875	17	0.012586
19	30660	18	0.012698
19	32382	19	0.012586
19	34167	20	0.01273116596
19	35889	21	0.012586
19	38241	22	0.013803173354
19	39957	23	0.012586
19	41613	24	0.012586
19	43191	25	0.01249
19	44769	26	0.01249
19	46347	27	0.01249
19	47925	28	0.01249
19	49503	29	0.01249
19	51081	30	0.01249
19	52659	31	0.01249
19	54237	32	0.01249
19	55815	33	0.01249
19	57393	34	0.01249
19	58971	35	0.01249
19	60549	36	0.01249
19	62127	37	0.01249
19	63705	38	0.01249
19	65283	39	0.01249
19	66861	40	0.01249
19	68439	41	0.01249
19	70017	42	0.01249
19	71595	43	0.01249
19	73173	44	0.01249
19	74751	45	0.01249
19	76329	46	0.01249
19	77907	47	0.01249
19	79485	48	0.01249
19	81063	49	0.01249
19	82641	50	0.01249
19	84219	51	0.01249
20	7444	5	0
20	9230	6	0
20	11016	7	0
20	12802	8	0
20	14588	9	0
20	16374	10	0
20	18160	11	0
20	19944	12	0
20	21721	13	0
20	23478	14	0
20	25413	15	0
20	27150	16	0
20	28875	17	0
20	30660	18	0
20	32382	19	0
20	34167	20	0
20	35889	21	0
20	38241	22	0
20	39957	23	0
20	41613	24	0
20	43191	25	0
20	44769	26	0
20	46347	27	0
20	47925	28	0
20	49503	29	0
20	51081	30	0
20	52659	31	0
20	54237	32	0
20	55815	33	0
20	57393	34	0
20	58971	35	0
20	60549	36	0
20	62127	37	0
20	63705	38	0
20	65283	39	0
20	66861	40	0
20	68439	41	0
20	70017	42	0
20	71595	43	0
20	73173	44	0
20	74751	45	0
20	76329	46	0
20	77907	47	0
20	79485	48	0
20	81063	49	0
20	82641	50	0
20	84219	51	0
21	7445	5	3
21	9231	6	3
21	11017	7	3
21	12803	8	3
21	14589	9	3
21	16375	10	3
21	18161	11	3
21	19945	12	3
21	21722	13	3
21	23479	14	3
21	25414	15	3
21	27151	16	3
21	28876	17	3
21	30661	18	3
21	32383	19	3
21	34168	20	3
21	35890	21	3
21	38242	22	3
21	39958	23	3
21	41614	24	3
21	43192	25	3
21	44770	26	3
21	46348	27	3
21	47926	28	3
21	49504	29	3
21	51082	30	3
21	52660	31	3
21	54238	32	3
21	55816	33	3
21	57394	34	3
21	58972	35	3
21	60550	36	3
21	62128	37	3
21	63706	38	3
21	65284	39	3
21	66862	40	3
21	68440	41	3
21	70018	42	3
21	71596	43	3
21	73174	44	3
21	74752	45	3
21	76330	46	3
21	77908	47	3
21	79486	48	3
21	81064	49	3
21	82642	50	3
21	84220	51	3
22	7445	5	0.012586
22	9231	6	0.012586
22	11017	7	0.012586
22	12803	8	0.012586
22	14589	9	0.012586
22	16375	10	0.012586
22	18161	11	0.012586
22	19945	12	0.012586
22	21722	13	0.012586
22	23479	14	0.012586
22	25414	15	0.012954
22	27151	16	0.012586
22	28876	17	0.012586
22	30661	18	0.012698
22	32383	19	0.012586
22	34168	20	0.012698
22	35890	21	0.012586
22	38242	22	0.013836507144
22	39958	23	0.012586
22	41614	24	0.012586
22	43192	25	0.01249
22	44770	26	0.01249
22	46348	27	0.01249
22	47926	28	0.01249
22	49504	29	0.01249
22	51082	30	0.01249
22	52660	31	0.01249
22	54238	32	0.01249
22	55816	33	0.01249
22	57394	34	0.01249
22	58972	35	0.01249
22	60550	36	0.01249
22	62128	37	0.01249
22	63706	38	0.01249
22	65284	39	0.01249
22	66862	40	0.01249
22	68440	41	0.01249
22	70018	42	0.01249
22	71596	43	0.01249
22	73174	44	0.01249
22	74752	45	0.01249
22	76330	46	0.01249
22	77908	47	0.01249
22	79486	48	0.01249
22	81064	49	0.01249
22	82642	50	0.01249
22	84220	51	0.01249
23	7445	5	0
23	9231	6	0
23	11017	7	0
23	12803	8	0
23	14589	9	0
23	16375	10	0
23	18161	11	0
23	19945	12	0
23	21722	13	0
23	23479	14	0
23	25414	15	0
23	27151	16	0
23	28876	17	0
23	30661	18	0
23	32383	19	0
23	34168	20	0
23	35890	21	0
23	38242	22	0
23	39958	23	0
23	41614	24	0
23	43192	25	0
23	44770	26	0
23	46348	27	0
23	47926	28	0
23	49504	29	0
23	51082	30	0
23	52660	31	0
23	54238	32	0
23	55816	33	0
23	57394	34	0
23	58972	35	0
23	60550	36	0
23	62128	37	0
23	63706	38	0
23	65284	39	0
23	66862	40	0
23	68440	41	0
23	70018	42	0
23	71596	43	0
23	73174	44	0
23	74752	45	0
23	76330	46	0
23	77908	47	0
23	79486	48	0
23	81064	49	0
23	82642	50	0
23	84220	51	0

