version 2
run SplittingManeuver1-0-20211009-01:47:25-6450
attr configname SplittingManeuver1
attr datetime 20211009-01:47:25
attr experiment SplittingManeuver1
attr inifile omnetpp.ini
attr iterationvars "$nCars=4, $platoonSize=4, $nLanes=1, $caccXi=1, $caccOmegaN=0.2, $ploegH=0.5, $leaderHeadway=1.2, $leaderSpeed=100, $beaconInterval=0.1, $priority=2, $packetSize=200"
attr iterationvarsf nCars=4,platoonSize=4,nLanes=1,caccXi=1,caccOmegaN=0.2,ploegH=0.5,leaderHeadway=1.2,leaderSpeed=100,beaconInterval=0.1,priority=2,packetSize=200-
attr measurement "$nCars=4, $platoonSize=4, $nLanes=1, $caccXi=1, $caccOmegaN=0.2, $ploegH=0.5, $leaderHeadway=1.2, $leaderSpeed=100, $beaconInterval=0.1, $priority=2, $packetSize=200"
attr network Highway
attr processid 6450
attr repetition 0
attr replication #0
attr resultdir results
attr runnumber 0
attr seedset 0
itervar beaconInterval 0.1
itervar caccOmegaN 0.2
itervar caccXi 1
itervar leaderHeadway 1.2
itervar leaderSpeed 100
itervar nCars 4
itervar nLanes 1
itervar packetSize 200
itervar platoonSize 4
itervar ploegH 0.5
itervar priority 2
param *.node[*].appl.vehicleDestination "\"1,0,1,0\""
param *.playgroundSizeX 65000m
param *.playgroundSizeY 25000m
param *.playgroundSizeZ 50m
param *.annotations.draw false
param *.obstacles.debug false
param *.world.useTorus false
param *.world.use2D false
param *.manager.updateInterval 0.01s
param *.manager.host "\"localhost\""
param *.manager.moduleType "\"org.car2x.plexe.PlatoonCar\""
param *.manager.moduleName "\"node\""
param *.manager.moduleDisplayString "\"\""
param *.manager.autoShutdown true
param *.manager.margin 25
param *.rsu[0].mobility.x 20
param *.rsu[0].mobility.y 40
param *.rsu[0].mobility.z 1.895
param *.rsu[*].applType "\"AppRSU\""
param *.rsu[*].appl.headerLength "80 bit"
param *.rsu[*].appl.sendBeacons false
param *.rsu[*].appl.dataOnSch false
param *.rsu[*].appl.beaconInterval 1s
param *.rsu[*].appl.beaconUserPriority 7
param *.rsu[*].appl.dataUserPriority 5
param *.rsu[*].nic.phy80211p.antennaOffsetZ "0 m"
param *.rsu[*].appl.sendBeacons true
param *.rsu[*].appl.dataOnSch true
param *.connectionManager.sendDirect true
param *.connectionManager.maxInterfDist 2600m
param *.connectionManager.drawMaxIntfDist false
param *.**.nic.mac1609_4.useServiceChannel false
param *.**.nic.mac1609_4.txPower 20mW
param *.**.nic.mac1609_4.bitrate 6Mbps
param *.**.nic.mac1609_4.useAcks true
param *.**.nic.mac1609_4.ackErrorRate 0.0
param *.**.nic.mac1609_4.frameErrorRate 0.0
param *.**.nic.phy80211p.minPowerLevel -94dBm
param *.**.nic.phy80211p.maxTXPower 100mW
param *.**.nic.phy80211p.useNoiseFloor true
param *.**.nic.phy80211p.noiseFloor -95dBm
param *.**.nic.phy80211p.decider "xmldoc(\"config.xml\")"
param *.**.nic.phy80211p.analogueModels "xmldoc(\"config.xml\")"
param *.**.nic.phy80211p.usePropagationDelay true
param *.**.nic.phy80211p.antenna "xmldoc(\"antenna.xml\", \"/root/Antenna[@id='monopole']\")"
param *.rsu[*].nic.phy80211p.antennaOffsetY "0 m"
param *.rsu[*].nic.phy80211p.antennaOffsetZ "1.895 m"
param *.node[*].mobility.x 0
param *.node[*].mobility.y 0
param *.node[*].mobility.z 1.895
param **.seed 0
param *.manager.configFile "\"./sumocfg/freeway.sumo.cfg\""
param *.manager.launchConfig "xmldoc(\"./sumocfg/freeway.launchd.xml\")"
param **.numberOfCars 4
param **.numberOfCarsPerPlatoon 4
param **.numberOfLanes 1
param **.controllerXi 1
param **.controllerOmegaN 0.2
param *.node[*].helper_type "\"PositionHelper\""
param *.node[*].scenario.caccC1 0.5
param *.node[*].scenario.caccXi 1
param *.node[*].scenario.caccOmegaN "0.2 Hz"
param *.node[*].scenario.caccSpacing "5 m"
param *.node[*].scenario.engineTau "0.5 s"
param *.node[*].scenario.ploegH 0.5s
param *.node[*].scenario.ploegKp 0.2
param *.node[*].scenario.ploegKd 0.7
param *.node[*].scenario.useRealisticEngine false
param **.numericController 0
param *.node[*].scenario.controller "\"CACC\""
param *.node[*].scenario.accHeadway "0.1 s"
param *.node[*].scenario.leaderHeadway 1.2s
param *.node[*].scenario.leaderSpeed 100kmph
param *.node[*].appl_type "\"SplittingPlatooningApp\""
param *.node[*].appl.joinManeuver "\"JoinAtBack\""
param *.node[*].appl.mergeManeuver "\"MergeAtBack\""
param *.node[*].appl.splittingManeuver "\"Splitting\""
param *.node[*].protocol_type "\"SimplePlatooningBeaconing\""
param *.node[*].prot.beaconingInterval 0.1s
param *.node[*].prot.priority 2
param *.node[*].prot.packetSize 200
param **.traffic_type "\"PlatoonsTrafficManager\""
param **.traffic.platoonInsertTime "1 s"
param **.traffic.platoonInsertSpeed 100kmph
param **.traffic.nCars 4
param **.traffic.platoonSize 4
param **.traffic.nLanes 1
param **.traffic.platooningVType "\"vtypeauto\""
param **.traffic.platoonInsertDistance "5 m"
param **.traffic.platoonInsertHeadway "0 s"
param **.traffic.platoonLeaderHeadway 1.2s
param *.manager.command "\"sumo-gui\""
param *.manager.ignoreGuiCommands false
param *.node[*].scenario_type "\"SplittingManeuverScenario\""
param *.node[*].scenario.leaderController "\"ACC\""
param *.node[*].scenario.followerController "\"CACC\""
param *.node[*].scenario.otherCarController "\"ACC\""
param *.node[*].scenario.desiredPlatoonSpeed 110
param *.node[*].scenario.desiredIntersectionPlatoonSpeed 90
param *.node[*].scenario.desiredOtherCarSpeed 130
param *.node[*].scenario.desiredIntersectionOtherCarSpeed 110
param *.node[*].scenario.meneuverTime 1
param *.node[*].appl.securityDistance 5

vector 0 Highway.node[3].prot frontDelay ETV
vector 1 Highway.node[3].prot frontDelayId ETV
vector 2 Highway.node[2].prot frontDelay ETV
vector 3 Highway.node[2].prot frontDelayId ETV
vector 4 Highway.node[1].prot leaderDelay ETV
vector 5 Highway.node[1].prot leaderDelayId ETV
vector 6 Highway.node[1].prot frontDelay ETV
vector 7 Highway.node[1].prot frontDelayId ETV
vector 8 Highway.node[2].prot leaderDelay ETV
vector 9 Highway.node[2].prot leaderDelayId ETV
vector 10 Highway.node[3].prot leaderDelay ETV
vector 11 Highway.node[3].prot leaderDelayId ETV
vector 12 Highway.node[0].prot nodeId ETV
vector 13 Highway.node[0].prot busyTime ETV
vector 14 Highway.node[0].prot collisions ETV
vector 15 Highway.node[1].prot nodeId ETV
vector 16 Highway.node[1].prot busyTime ETV
vector 17 Highway.node[1].prot collisions ETV
vector 18 Highway.node[2].prot nodeId ETV
vector 19 Highway.node[2].prot busyTime ETV
vector 20 Highway.node[2].prot collisions ETV
vector 21 Highway.node[3].prot nodeId ETV
vector 22 Highway.node[3].prot busyTime ETV
vector 23 Highway.node[3].prot collisions ETV
0	788	1.213891645018	0.100001615398
0	958	1.313889822777	0.099998177759
0	1128	1.41388800059	0.099998177813
0	1298	1.513886178486	0.099998177896
0	1468	1.613884356481	0.099998177995
0	1638	1.713882534593	0.099998178112
0	1808	1.813880712833	0.09999817824
0	1978	1.913891891209	0.100011178376
0	2152	2.013890069731	0.099998178522
0	2322	2.113888248403	0.099998178672
0	2574	2.213879860199	0.099991611796
0	2744	2.313891039177	0.100011178978
0	2914	2.41388921831	0.099998179133
0	3084	2.513887397599	0.099998179289
0	3254	2.613885577039	0.09999817944
0	3424	2.713883756628	0.099998179589
0	3594	2.813881936357	0.099998179729
0	3764	2.913880116219	0.099998179862
0	3938	3.013891296206	0.100011179987
0	4108	3.113889476306	0.0999981801
0	4360	3.213881245702	0.099991769396
0	4530	3.313892426	0.100011180298
0	4700	3.413890606381	0.099998180381
0	4870	3.513888786834	0.099998180453
0	5040	3.61388696735	0.099998180516
0	5210	3.713885147918	0.099998180568
0	5380	3.813883328527	0.099998180609
0	5550	3.913881509173	0.099998180646
0	5724	4.013892689844	0.100011180671
0	5894	4.113890870535	0.099998180691
0	6146	4.213882818511	0.099991947976
0	6316	4.313880999219	0.099998180708
0	6486	4.413892179927	0.100011180708
0	6656	4.513890360633	0.099998180706
0	6826	4.613888541329	0.099998180696
0	6996	4.713886722013	0.099998180684
0	7166	4.813884902683	0.09999818067
0	7336	4.913883083334	0.099998180651
0	7510	5.013881263964	0.09999818063
0	7680	5.113892444575	0.100011180611
0	7932	5.213884580539	0.099992135964
0	8102	5.313882761101	0.099998180562
0	8272	5.413880941636	0.099998180535
0	8442	5.513892122146	0.10001118051
0	8612	5.61389030263	0.099998180484
0	8782	5.713888483089	0.099998180459
0	8952	5.813886663519	0.09999818043
0	9122	5.913884843925	0.099998180406
0	9296	6.013883024304	0.099998180379
0	9466	6.113881204658	0.099998180354
0	9718	6.213886532784	0.100005328126
0	9888	6.313884713087	0.099998180303
0	10058	6.413882893366	0.099998180279
0	10228	6.513881073621	0.099998180255
0	10398	6.613892253853	0.100011180232
0	10568	6.713890434061	0.099998180208
0	10738	6.813888614246	0.099998180185
0	10908	6.91388679441	0.099998180164
0	11082	7.013884974553	0.099998180143
0	11252	7.113883154673	0.09999818012
0	11504	7.213888677267	0.100005522594
0	11674	7.313886857346	0.099998180079
0	11844	7.413885037405	0.099998180059
0	12014	7.513883217445	0.09999818004
0	12184	7.613881397466	0.099998180021
0	12354	7.713892577466	0.10001118
0	12524	7.813890757447	0.099998179981
0	12694	7.91388893741	0.099998179963
0	12868	8.013887117355	0.099998179945
0	13038	8.113885297282	0.099998179927
0	13290	8.21389101591	0.100005718628
0	13460	8.313889195798	0.099998179888
0	13630	8.413887375669	0.099998179871
0	13800	8.513885555523	0.099998179854
0	13970	8.613883735359	0.099998179836
0	14140	8.713881915178	0.099998179819
0	14310	8.813880094977	0.099998179799
0	14480	8.91389127476	0.100011179783
0	14654	9.013889454526	0.099998179766
0	14824	9.113887634275	0.099998179749
0	15076	9.213880550051	0.099992915776
0	15246	9.313891729765	0.100011179714
0	15416	9.413889909462	0.099998179697
0	15586	9.51388808914	0.099998179678
0	15756	9.613886268802	0.099998179662
0	15926	9.713884448447	0.099998179645
0	16096	9.813882628075	0.099998179628
0	16266	9.913880808768	0.099998180693
0	16440	10.013891987224	0.100011178456
0	16610	10.113890166114	0.09999817889
0	16862	10.213883283093	0.099993116979
0	17032	10.313881462506	0.099998179413
0	17202	10.413892644135	0.100011181629
0	17372	10.513890827119	0.099998182984
0	17542	10.613889008779	0.09999818166
0	17908	10.713885377236	0.099996368457
0	18078	10.813883553825	0.099998176589
0	18248	10.913881736523	0.099998182698
0	18416	11.013879917782	0.099998181259
0	18592	11.113891099576	0.100011181794
0	18844	11.213884414165	0.099993314589
0	19014	11.313882595884	0.099998181719
0	19184	11.413880777577	0.099998181693
0	19354	11.513891959251	0.100011181674
0	19523	11.613890140921	0.09999818167
0	19693	11.713888322601	0.09999818168
0	19857	11.813886504309	0.099998181708
0	20027	11.913884686061	0.099998181752
0	20201	12.013882867878	0.099998181817
0	20371	12.113881049779	0.099998181901
0	20621	12.21388755985	0.100006510071
0	20791	12.313885741975	0.099998182125
0	20961	12.413883924243	0.099998182268
0	21130	12.513882106675	0.099998182432
0	21300	12.61388028929	0.099998182615
0	21470	12.713891472107	0.100011182817
0	21638	12.813889655146	0.099998183039
0	21806	12.913887838427	0.099998183281
0	21979	13.013886021969	0.099998183542
0	22146	13.113884205789	0.09999818382
0	22394	13.213890902589	0.1000066968
0	22563	13.313889087019	0.09999818443
0	22729	13.413887271781	0.099998184762
0	22896	13.513885456889	0.099998185108
0	23063	13.61388364236	0.099998185471
0	23230	13.713881828209	0.099998185849
0	23397	13.81388001445	0.099998186241
0	23564	13.913891201099	0.100011186649
0	23734	14.01388938817	0.099998187071
0	23900	14.113887575674	0.099998187504
0	24148	14.213881449714	0.09999387404
0	24315	14.313892638131	0.100011188417
0	24481	14.413890827028	0.099998188897
0	24647	14.513889016423	0.099998189395
0	24813	14.613887206329	0.099998189906
0	24979	14.713885396766	0.099998190437
0	25145	14.813883587748	0.099998190982
0	25311	14.913881779293	0.099998191545
0	25481	15.013879971415	0.099998192122
0	25647	15.113891164129	0.100011192714
0	25886	15.213885206997	0.099994042868
0	26052	15.313883400937	0.09999819394
0	26218	15.413881595506	0.099998194569
0	26384	15.513879790717	0.099998195211
0	26550	15.613890986579	0.100011195862
0	26716	15.713889183101	0.099998196522
0	26882	15.81388738029	0.099998197189
0	27048	15.913885578155	0.099998197865
0	27218	16.0138837767	0.099998198545
0	27384	16.113881975929	0.099998199229
0	27611	16.213889184052	0.100007208123
0	27777	16.313887384663	0.099998200611
0	27943	16.41388558597	0.099998201307
0	28109	16.513883787973	0.099998202003
0	28275	16.613881990675	0.099998202702
0	28441	16.713880194075	0.0999982034
0	28607	16.813891398175	0.1000112041
0	28773	16.913889602971	0.099998204796
0	28943	17.013887808466	0.099998205495
0	29109	17.113886014656	0.09999820619
0	29333	17.213880387822	0.099994373166
0	29499	17.3138915954	0.100011207578
0	29665	17.413889803667	0.099998208267
0	29831	17.513888012621	0.099998208954
0	29997	17.613886222261	0.09999820964
0	30163	17.713884432585	0.099998210324
0	30329	17.813882643588	0.099998211003
0	30495	17.913880855266	0.099998211678
0	30665	18.013892067617	0.100011212351
0	30831	18.113890280636	0.099998213019
0	31055	18.213884819337	0.099994538701
0	31221	18.313883033684	0.099998214347
0	31387	18.413881248688	0.099998215004
0	31553	18.513892464348	0.10001121566
0	31719	18.613890680659	0.099998216311
0	31885	18.713888897616	0.099998216957
0	32051	18.813887115216	0.0999982176
0	32217	18.913885333456	0.09999821824
0	32387	19.01388355233	0.099998218874
0	32553	19.113881771834	0.099998219504
0	32777	19.213889476362	0.100007704528
0	32943	19.313887697116	0.099998220754
0	33109	19.413885918489	0.099998221373
0	33275	19.513884140477	0.099998221988
0	33441	19.613882363075	0.099998222598
0	33607	19.71388058628	0.099998223205
0	33773	19.813891810085	0.100011223805
0	33939	19.91389003449	0.099998224405
0	34109	20.013888259487	0.099998224997
0	34275	20.113886485073	0.099998225586
0	34499	20.213881355538	0.099994870465
0	34728	20.313887662508	0.10000630697
0	34894	20.413885889836	0.099998227328
0	35060	20.513884117735	0.099998227899
0	35226	20.613882346201	0.099998228466
0	35392	20.713880575231	0.09999822903
0	35558	20.813891804818	0.100011229587
0	35724	20.913890034959	0.099998230141
0	35894	21.013888265651	0.099998230692
0	36060	21.113886496888	0.099998231237
0	36284	21.213881533347	0.099995036459
0	36450	21.313879765661	0.099998232314
0	36616	21.413890998507	0.100011232846
0	36782	21.513889231879	0.099998233372
0	36948	21.613887465775	0.099998233896
0	37114	21.71388570019	0.099998234415
0	37280	21.813883935118	0.099998234928
0	37446	21.913882170556	0.099998235438
0	37616	22.0138804065	0.099998235944
0	37782	22.113891642943	0.100011236443
0	38006	22.213886845446	0.099995202503
0	38172	22.313885082877	0.099998237431
0	38338	22.413883320796	0.099998237919
0	38504	22.513881559197	0.099998238401
0	38670	22.613879798078	0.099998238881
0	39026	22.713889285716	0.100009487638
0	39192	22.81388752554	0.099998239824
0	39358	22.913885765829	0.099998240289
0	39528	23.01388400658	0.099998240751
0	39694	23.113882247786	0.099998241206
0	39918	23.213890616386	0.1000083686
0	40084	23.313888858492	0.099998242106
0	40250	23.413887101041	0.099998242549
0	40416	23.513885344029	0.099998242988
0	40582	23.613883587452	0.099998243423
0	40748	23.713881831305	0.099998243853
0	40914	23.813880075585	0.09999824428
0	41080	23.913891320286	0.100011244701
0	41250	24.013889565406	0.09999824512
0	41416	24.113887810938	0.099998245532
0	41640	24.213883345688	0.09999553475
0	41806	24.313881592035	0.099998246347
0	41972	24.413879838784	0.099998246749
0	42138	24.513891085929	0.100011247145
0	42304	24.61388933347	0.099998247541
0	42470	24.713887581397	0.099998247927
0	42636	24.81388582971	0.099998248313
0	42802	24.913884078406	0.099998248696
0	42972	25.013882327477	0.099998249071
0	43135	25.11388057692	0.099998249443
0	43350	25.213882188485	0.100001611565
0	43513	25.313880438664	0.099998250179
0	43676	25.413891689204	0.10001125054
0	43839	25.5138899401	0.099998250896
0	43999	25.613888191351	0.099998251251
0	44159	25.713886442951	0.0999982516
0	44319	25.813884694897	0.099998251946
0	44479	25.913882947186	0.099998252289
0	44642	26.013881199814	0.099998252628
0	44799	26.113892452776	0.100011252962
0	44996	26.213880063127	0.099987610351
0	45153	26.313891316749	0.100011253622
0	45310	26.413889570696	0.099998253947
0	45464	26.513887824963	0.099998254267
0	45618	26.613886079548	0.099998254585
0	45772	26.713884334447	0.099998254899
0	45926	26.813882589655	0.099998255208
0	46080	26.913880845169	0.099998255514
0	46238	27.013892100987	0.100011255818
0	46392	27.113890357105	0.099998256118
0	46580	27.21388861352	0.099998256415
0	46734	27.313886870228	0.099998256708
0	46888	27.413885127225	0.099998256997
0	47042	27.513883384509	0.099998257284
0	47196	27.613881642076	0.099998257567
0	47350	27.713879899923	0.099998257847
0	47504	27.813891158048	0.100011258125
0	47658	27.913889416448	0.0999982584
0	47816	28.013887675118	0.09999825867
0	47970	28.113885934055	0.099998258937
0	48158	28.213884193258	0.099998259203
0	48312	28.313882452722	0.099998259464
0	48466	28.413880712444	0.099998259722
0	48620	28.513891972421	0.100011259977
0	48774	28.613890232652	0.099998260231
0	48928	28.713888493132	0.09999826048
0	49082	28.813886753858	0.099998260726
0	49236	28.913885014828	0.09999826097
0	49394	29.013883276039	0.099998261211
0	49548	29.113881537489	0.09999826145
0	49736	29.213879799174	0.099998261685
0	49890	29.313891061091	0.100011261917
0	50044	29.413889323238	0.099998262147
0	50198	29.513887585614	0.099998262376
0	50352	29.613885848214	0.0999982626
0	50506	29.713884111036	0.099998262822
0	50660	29.813882374078	0.099998263042
0	50814	29.913880637335	0.099998263257
0	50972	30.013891900808	0.100011263473
0	51126	30.113890164493	0.099998263685
0	51314	30.213888428386	0.099998263893
0	51468	30.313886692485	0.099998264099
0	51622	30.413884956789	0.099998264304
0	51776	30.513883221295	0.099998264506
0	51930	30.613881485999	0.099998264704
0	52084	30.713879750901	0.099998264902
0	52238	30.813891015997	0.100011265096
0	52392	30.913889281285	0.099998265288
0	52550	31.013887546763	0.099998265478
0	52704	31.11388581243	0.099998265667
0	52892	31.21388407828	0.09999826585
0	53046	31.313882344315	0.099998266035
0	53200	31.413880610531	0.099998266216
0	53354	31.513891876924	0.100011266393
0	53508	31.613890143495	0.099998266571
0	53662	31.71388841024	0.099998266745
0	53816	31.813886677156	0.099998266916
0	53970	31.913884944244	0.099998267088
0	54128	32.013883211499	0.099998267255
0	54282	32.11388147892	0.099998267421
0	54470	32.213879746505	0.099998267585
0	54624	32.313891014253	0.100011267748
0	54778	32.41388928216	0.099998267907
0	54932	32.513887550226	0.099998268066
0	55086	32.613885818447	0.099998268221
0	55240	32.713884086821	0.099998268374
0	55394	32.81388235535	0.099998268529
0	55548	32.913880624028	0.099998268678
0	55706	33.013891892855	0.100011268827
0	55860	33.113890161828	0.099998268973
0	56048	33.213888430947	0.099998269119
0	56202	33.313886700209	0.099998269262
0	56356	33.413884969611	0.099998269402
0	56510	33.513883239153	0.099998269542
0	56664	33.613881508834	0.099998269681
0	56818	33.713879778651	0.099998269817
0	56972	33.813891048602	0.100011269951
0	57126	33.913889318686	0.099998270084
0	57284	34.013887588901	0.099998270215
0	57438	34.113885859245	0.099998270344
0	57626	34.213884129717	0.099998270472
0	57780	34.313882400316	0.099998270599
0	57934	34.413880671039	0.099998270723
0	58088	34.513891941885	0.100011270846
0	58242	34.613890212853	0.099998270968
0	58396	34.713888483941	0.099998271088
0	58550	34.813886755147	0.099998271206
0	58704	34.91388502647	0.099998271323
0	58862	35.013883297909	0.099998271439
0	59016	35.113881569462	0.099998271553
0	59204	35.213879841128	0.099998271666
0	59358	35.313891112906	0.100011271778
0	59512	35.413889384793	0.099998271887
0	59666	35.513887656787	0.099998271994
0	59820	35.613885928889	0.099998272102
0	59974	35.713884201097	0.099998272208
0	60128	35.81388247341	0.099998272313
0	60282	35.913880745827	0.099998272417
0	60440	36.013892018344	0.100011272517
0	60594	36.113890290961	0.099998272617
0	60782	36.213888563678	0.099998272717
0	60936	36.313886836492	0.099998272814
0	61090	36.413885109403	0.099998272911
0	61244	36.513883382411	0.099998273008
0	61398	36.613881655513	0.099998273102
0	61552	36.713879928708	0.099998273195
0	61706	36.813891201994	0.100011273286
0	61860	36.913889475373	0.099998273379
0	62018	37.01388774884	0.099998273467
0	62172	37.113886022396	0.099998273556
0	62360	37.213884296037	0.099998273641
0	62514	37.313882569755	0.099998273718
0	62668	37.413880843475	0.09999827372
0	62822	37.513892117204	0.100011273729
0	62976	37.613890390945	0.099998273741
0	63130	37.713888664708	0.099998273763
0	63284	37.813886938427	0.099998273719
0	63438	37.913885212071	0.099998273644
0	63596	38.01388348565	0.099998273579
0	63750	38.113881759197	0.099998273547
0	63938	38.213880032734	0.099998273537
0	64092	38.313891306304	0.10001127357
0	64246	38.413889579808	0.099998273504
0	64400	38.513887853259	0.099998273451
0	64554	38.613886126695	0.099998273436
0	64708	38.713884400152	0.099998273457
0	64862	38.813882673552	0.0999982734
0	65016	38.913880946963	0.099998273411
0	65174	39.013892220484	0.100011273521
0	65328	39.113890494002	0.099998273518
0	65516	39.213888767584	0.099998273582
0	65670	39.31388704127	0.099998273686
0	65824	39.413885314975	0.099998273705
0	65978	39.513883588794	0.099998273819
0	66132	39.613881862778	0.099998273984
0	66286	39.713880136982	0.099998274204
0	66440	39.813891411427	0.100011274445
0	66594	39.913889686245	0.099998274818
0	66752	40.013887961555	0.09999827531
0	66906	40.113886237036	0.099998275481
0	67094	40.213884512721	0.099998275685
0	67248	40.313882788607	0.099998275886
0	67402	40.413881064522	0.099998275915
0	67556	40.513892340496	0.100011275974
0	67710	40.613890616526	0.09999827603
0	67864	40.71388889261	0.099998276084
0	68018	40.813887168749	0.099998276139
0	68172	40.913885444942	0.099998276193
0	68330	41.013883721188	0.099998276246
0	68484	41.113881997487	0.099998276299
0	68672	41.213880273839	0.099998276352
0	68826	41.313891550241	0.100011276402
0	68980	41.413889826694	0.099998276453
0	69134	41.513888103197	0.099998276503
0	69288	41.613886379749	0.099998276552
0	69442	41.71388465635	0.099998276601
1	788	1.213891645018	3
1	958	1.313889822777	3
1	1128	1.41388800059	3
1	1298	1.513886178486	3
1	1468	1.613884356481	3
1	1638	1.713882534593	3
1	1808	1.813880712833	3
1	1978	1.913891891209	3
1	2152	2.013890069731	3
1	2322	2.113888248403	3
1	2574	2.213879860199	3
1	2744	2.313891039177	3
1	2914	2.41388921831	3
1	3084	2.513887397599	3
1	3254	2.613885577039	3
1	3424	2.713883756628	3
1	3594	2.813881936357	3
1	3764	2.913880116219	3
1	3938	3.013891296206	3
1	4108	3.113889476306	3
1	4360	3.213881245702	3
1	4530	3.313892426	3
1	4700	3.413890606381	3
1	4870	3.513888786834	3
1	5040	3.61388696735	3
1	5210	3.713885147918	3
1	5380	3.813883328527	3
1	5550	3.913881509173	3
1	5724	4.013892689844	3
1	5894	4.113890870535	3
1	6146	4.213882818511	3
1	6316	4.313880999219	3
1	6486	4.413892179927	3
1	6656	4.513890360633	3
1	6826	4.613888541329	3
1	6996	4.713886722013	3
1	7166	4.813884902683	3
1	7336	4.913883083334	3
1	7510	5.013881263964	3
1	7680	5.113892444575	3
1	7932	5.213884580539	3
1	8102	5.313882761101	3
1	8272	5.413880941636	3
1	8442	5.513892122146	3
1	8612	5.61389030263	3
1	8782	5.713888483089	3
1	8952	5.813886663519	3
1	9122	5.913884843925	3
1	9296	6.013883024304	3
1	9466	6.113881204658	3
1	9718	6.213886532784	3
1	9888	6.313884713087	3
1	10058	6.413882893366	3
1	10228	6.513881073621	3
1	10398	6.613892253853	3
1	10568	6.713890434061	3
1	10738	6.813888614246	3
1	10908	6.91388679441	3
1	11082	7.013884974553	3
1	11252	7.113883154673	3
1	11504	7.213888677267	3
1	11674	7.313886857346	3
1	11844	7.413885037405	3
1	12014	7.513883217445	3
1	12184	7.613881397466	3
1	12354	7.713892577466	3
1	12524	7.813890757447	3
1	12694	7.91388893741	3
1	12868	8.013887117355	3
1	13038	8.113885297282	3
1	13290	8.21389101591	3
1	13460	8.313889195798	3
1	13630	8.413887375669	3
1	13800	8.513885555523	3
1	13970	8.613883735359	3
1	14140	8.713881915178	3
1	14310	8.813880094977	3
1	14480	8.91389127476	3
1	14654	9.013889454526	3
1	14824	9.113887634275	3
1	15076	9.213880550051	3
1	15246	9.313891729765	3
1	15416	9.413889909462	3
1	15586	9.51388808914	3
1	15756	9.613886268802	3
1	15926	9.713884448447	3
1	16096	9.813882628075	3
1	16266	9.913880808768	3
1	16440	10.013891987224	3
1	16610	10.113890166114	3
1	16862	10.213883283093	3
1	17032	10.313881462506	3
1	17202	10.413892644135	3
1	17372	10.513890827119	3
1	17542	10.613889008779	3
1	17908	10.713885377236	3
1	18078	10.813883553825	3
1	18248	10.913881736523	3
1	18416	11.013879917782	3
1	18592	11.113891099576	3
1	18844	11.213884414165	3
1	19014	11.313882595884	3
1	19184	11.413880777577	3
1	19354	11.513891959251	3
1	19523	11.613890140921	3
1	19693	11.713888322601	3
1	19857	11.813886504309	3
1	20027	11.913884686061	3
1	20201	12.013882867878	3
1	20371	12.113881049779	3
1	20621	12.21388755985	3
1	20791	12.313885741975	3
1	20961	12.413883924243	3
1	21130	12.513882106675	3
1	21300	12.61388028929	3
1	21470	12.713891472107	3
1	21638	12.813889655146	3
1	21806	12.913887838427	3
1	21979	13.013886021969	3
1	22146	13.113884205789	3
1	22394	13.213890902589	3
1	22563	13.313889087019	3
1	22729	13.413887271781	3
1	22896	13.513885456889	3
1	23063	13.61388364236	3
1	23230	13.713881828209	3
1	23397	13.81388001445	3
1	23564	13.913891201099	3
1	23734	14.01388938817	3
1	23900	14.113887575674	3
1	24148	14.213881449714	3
1	24315	14.313892638131	3
1	24481	14.413890827028	3
1	24647	14.513889016423	3
1	24813	14.613887206329	3
1	24979	14.713885396766	3
1	25145	14.813883587748	3
1	25311	14.913881779293	3
1	25481	15.013879971415	3
1	25647	15.113891164129	3
1	25886	15.213885206997	3
1	26052	15.313883400937	3
1	26218	15.413881595506	3
1	26384	15.513879790717	3
1	26550	15.613890986579	3
1	26716	15.713889183101	3
1	26882	15.81388738029	3
1	27048	15.913885578155	3
1	27218	16.0138837767	3
1	27384	16.113881975929	3
1	27611	16.213889184052	3
1	27777	16.313887384663	3
1	27943	16.41388558597	3
1	28109	16.513883787973	3
1	28275	16.613881990675	3
1	28441	16.713880194075	3
1	28607	16.813891398175	3
1	28773	16.913889602971	3
1	28943	17.013887808466	3
1	29109	17.113886014656	3
1	29333	17.213880387822	3
1	29499	17.3138915954	3
1	29665	17.413889803667	3
1	29831	17.513888012621	3
1	29997	17.613886222261	3
1	30163	17.713884432585	3
1	30329	17.813882643588	3
1	30495	17.913880855266	3
1	30665	18.013892067617	3
1	30831	18.113890280636	3
1	31055	18.213884819337	3
1	31221	18.313883033684	3
1	31387	18.413881248688	3
1	31553	18.513892464348	3
1	31719	18.613890680659	3
1	31885	18.713888897616	3
1	32051	18.813887115216	3
1	32217	18.913885333456	3
1	32387	19.01388355233	3
1	32553	19.113881771834	3
1	32777	19.213889476362	3
1	32943	19.313887697116	3
1	33109	19.413885918489	3
1	33275	19.513884140477	3
1	33441	19.613882363075	3
1	33607	19.71388058628	3
1	33773	19.813891810085	3
1	33939	19.91389003449	3
1	34109	20.013888259487	3
1	34275	20.113886485073	3
1	34499	20.213881355538	3
1	34728	20.313887662508	3
1	34894	20.413885889836	3
1	35060	20.513884117735	3
1	35226	20.613882346201	3
1	35392	20.713880575231	3
1	35558	20.813891804818	3
1	35724	20.913890034959	3
1	35894	21.013888265651	3
1	36060	21.113886496888	3
1	36284	21.213881533347	3
1	36450	21.313879765661	3
1	36616	21.413890998507	3
1	36782	21.513889231879	3
1	36948	21.613887465775	3
1	37114	21.71388570019	3
1	37280	21.813883935118	3
1	37446	21.913882170556	3
1	37616	22.0138804065	3
1	37782	22.113891642943	3
1	38006	22.213886845446	3
1	38172	22.313885082877	3
1	38338	22.413883320796	3
1	38504	22.513881559197	3
1	38670	22.613879798078	3
1	39026	22.713889285716	3
1	39192	22.81388752554	3
1	39358	22.913885765829	3
1	39528	23.01388400658	3
1	39694	23.113882247786	3
1	39918	23.213890616386	3
1	40084	23.313888858492	3
1	40250	23.413887101041	3
1	40416	23.513885344029	3
1	40582	23.613883587452	3
1	40748	23.713881831305	3
1	40914	23.813880075585	3
1	41080	23.913891320286	3
1	41250	24.013889565406	3
1	41416	24.113887810938	3
1	41640	24.213883345688	3
1	41806	24.313881592035	3
1	41972	24.413879838784	3
1	42138	24.513891085929	3
1	42304	24.61388933347	3
1	42470	24.713887581397	3
1	42636	24.81388582971	3
1	42802	24.913884078406	3
1	42972	25.013882327477	3
1	43135	25.11388057692	3
1	43350	25.213882188485	3
1	43513	25.313880438664	3
1	43676	25.413891689204	3
1	43839	25.5138899401	3
1	43999	25.613888191351	3
1	44159	25.713886442951	3
1	44319	25.813884694897	3
1	44479	25.913882947186	3
1	44642	26.013881199814	3
1	44799	26.113892452776	3
1	44996	26.213880063127	3
1	45153	26.313891316749	3
1	45310	26.413889570696	3
1	45464	26.513887824963	3
1	45618	26.613886079548	3
1	45772	26.713884334447	3
1	45926	26.813882589655	3
1	46080	26.913880845169	3
1	46238	27.013892100987	3
1	46392	27.113890357105	3
1	46580	27.21388861352	3
1	46734	27.313886870228	3
1	46888	27.413885127225	3
1	47042	27.513883384509	3
1	47196	27.613881642076	3
1	47350	27.713879899923	3
1	47504	27.813891158048	3
1	47658	27.913889416448	3
1	47816	28.013887675118	3
1	47970	28.113885934055	3
1	48158	28.213884193258	3
1	48312	28.313882452722	3
1	48466	28.413880712444	3
1	48620	28.513891972421	3
1	48774	28.613890232652	3
1	48928	28.713888493132	3
1	49082	28.813886753858	3
1	49236	28.913885014828	3
1	49394	29.013883276039	3
1	49548	29.113881537489	3
1	49736	29.213879799174	3
1	49890	29.313891061091	3
1	50044	29.413889323238	3
1	50198	29.513887585614	3
1	50352	29.613885848214	3
1	50506	29.713884111036	3
1	50660	29.813882374078	3
1	50814	29.913880637335	3
1	50972	30.013891900808	3
1	51126	30.113890164493	3
1	51314	30.213888428386	3
1	51468	30.313886692485	3
1	51622	30.413884956789	3
1	51776	30.513883221295	3
1	51930	30.613881485999	3
1	52084	30.713879750901	3
1	52238	30.813891015997	3
1	52392	30.913889281285	3
1	52550	31.013887546763	3
1	52704	31.11388581243	3
1	52892	31.21388407828	3
1	53046	31.313882344315	3
1	53200	31.413880610531	3
1	53354	31.513891876924	3
1	53508	31.613890143495	3
1	53662	31.71388841024	3
1	53816	31.813886677156	3
1	53970	31.913884944244	3
1	54128	32.013883211499	3
1	54282	32.11388147892	3
1	54470	32.213879746505	3
1	54624	32.313891014253	3
1	54778	32.41388928216	3
1	54932	32.513887550226	3
1	55086	32.613885818447	3
1	55240	32.713884086821	3
1	55394	32.81388235535	3
1	55548	32.913880624028	3
1	55706	33.013891892855	3
1	55860	33.113890161828	3
1	56048	33.213888430947	3
1	56202	33.313886700209	3
1	56356	33.413884969611	3
1	56510	33.513883239153	3
1	56664	33.613881508834	3
1	56818	33.713879778651	3
1	56972	33.813891048602	3
1	57126	33.913889318686	3
1	57284	34.013887588901	3
1	57438	34.113885859245	3
1	57626	34.213884129717	3
1	57780	34.313882400316	3
1	57934	34.413880671039	3
1	58088	34.513891941885	3
1	58242	34.613890212853	3
1	58396	34.713888483941	3
1	58550	34.813886755147	3
1	58704	34.91388502647	3
1	58862	35.013883297909	3
1	59016	35.113881569462	3
1	59204	35.213879841128	3
1	59358	35.313891112906	3
1	59512	35.413889384793	3
1	59666	35.513887656787	3
1	59820	35.613885928889	3
1	59974	35.713884201097	3
1	60128	35.81388247341	3
1	60282	35.913880745827	3
1	60440	36.013892018344	3
1	60594	36.113890290961	3
1	60782	36.213888563678	3
1	60936	36.313886836492	3
1	61090	36.413885109403	3
1	61244	36.513883382411	3
1	61398	36.613881655513	3
1	61552	36.713879928708	3
1	61706	36.813891201994	3
1	61860	36.913889475373	3
1	62018	37.01388774884	3
1	62172	37.113886022396	3
1	62360	37.213884296037	3
1	62514	37.313882569755	3
1	62668	37.413880843475	3
1	62822	37.513892117204	3
1	62976	37.613890390945	3
1	63130	37.713888664708	3
1	63284	37.813886938427	3
1	63438	37.913885212071	3
1	63596	38.01388348565	3
1	63750	38.113881759197	3
1	63938	38.213880032734	3
1	64092	38.313891306304	3
1	64246	38.413889579808	3
1	64400	38.513887853259	3
1	64554	38.613886126695	3
1	64708	38.713884400152	3
1	64862	38.813882673552	3
1	65016	38.913880946963	3
1	65174	39.013892220484	3
1	65328	39.113890494002	3
1	65516	39.213888767584	3
1	65670	39.31388704127	3
1	65824	39.413885314975	3
1	65978	39.513883588794	3
1	66132	39.613881862778	3
1	66286	39.713880136982	3
1	66440	39.813891411427	3
1	66594	39.913889686245	3
1	66752	40.013887961555	3
1	66906	40.113886237036	3
1	67094	40.213884512721	3
1	67248	40.313882788607	3
1	67402	40.413881064522	3
1	67556	40.513892340496	3
1	67710	40.613890616526	3
1	67864	40.71388889261	3
1	68018	40.813887168749	3
1	68172	40.913885444942	3
1	68330	41.013883721188	3
1	68484	41.113881997487	3
1	68672	41.213880273839	3
1	68826	41.313891550241	3
1	68980	41.413889826694	3
1	69134	41.513888103197	3
1	69288	41.613886379749	3
1	69442	41.71388465635	3
2	829	1.22964167464	0.1000016154
2	999	1.329639852403	0.099998177763
2	1169	1.429638030226	0.099998177823
2	1339	1.529636208133	0.099998177907
2	1509	1.629647386144	0.100011178011
2	1679	1.729645564272	0.099998178128
2	1849	1.829643742529	0.099998178257
2	2019	1.929641920925	0.099998178396
2	2193	2.029640099468	0.099998178543
2	2363	2.129638278161	0.099998178693
2	2615	2.229642889978	0.100004611817
2	2785	2.329641068979	0.099998179001
2	2955	2.429639248134	0.099998179155
2	3125	2.529637427445	0.099998179311
2	3295	2.629648606908	0.100011179463
2	3465	2.729646786518	0.09999817961
2	3635	2.829644966267	0.099998179749
2	3805	2.929643146148	0.099998179881
2	3979	3.029641326151	0.099998180003
2	4149	3.129639506266	0.099998180115
2	4401	3.229644275675	0.100004769409
2	4571	3.329642455985	0.09999818031
2	4741	3.429640636376	0.099998180391
2	4911	3.529638816837	0.099998180461
2	5081	3.629636997359	0.099998180522
2	5251	3.729648177931	0.100011180572
2	5421	3.829646358545	0.099998180614
2	5591	3.929644539192	0.099998180647
2	5765	4.029642719864	0.099998180672
2	5935	4.129640900553	0.099998180689
2	6187	4.229645848529	0.100004947976
2	6357	4.329644029234	0.099998180705
2	6527	4.42964220994	0.099998180706
2	6697	4.529640390642	0.099998180702
2	6867	4.629638571334	0.099998180692
2	7037	4.729636752013	0.099998180679
2	7207	4.829647932678	0.100011180665
2	7377	4.929646113325	0.099998180647
2	7551	5.02964429395	0.099998180625
2	7721	5.129642474555	0.099998180605
2	7973	5.229647610513	0.100005135958
2	8143	5.32964579107	0.099998180557
2	8313	5.429643971601	0.099998180531
2	8483	5.529642152105	0.099998180504
2	8653	5.629640332584	0.099998180479
2	8823	5.729638513038	0.099998180454
2	8993	5.829636693464	0.099998180426
2	9163	5.929647873865	0.100011180401
2	9337	6.029646054241	0.099998180376
2	9507	6.12964423459	0.099998180349
2	9759	6.229636562711	0.099992328121
2	9929	6.329647743011	0.1000111803
2	10099	6.429645923286	0.099998180275
2	10269	6.529644103538	0.099998180252
2	10439	6.629642283767	0.099998180229
2	10609	6.729640463972	0.099998180205
2	10779	6.829638644155	0.099998180183
2	10949	6.929636824315	0.09999818016
2	11123	7.029648004456	0.100011180141
2	11293	7.129646184574	0.099998180118
2	11545	7.229638707165	0.099992522591
2	11715	7.329636887242	0.099998180077
2	11885	7.429648067299	0.100011180057
2	12055	7.529646247337	0.099998180038
2	12225	7.629644427356	0.099998180019
2	12395	7.729642607355	0.099998179999
2	12565	7.829640787334	0.099998179979
2	12735	7.929638967295	0.099998179961
2	12909	8.029637147238	0.099998179943
2	13079	8.129648327163	0.100011179925
2	13331	8.229641045789	0.099992718626
2	13501	8.329639225676	0.099998179887
2	13671	8.429637405545	0.099998179869
2	13841	8.529648585397	0.100011179852
2	14011	8.629646765231	0.099998179834
2	14181	8.729644945048	0.099998179817
2	14351	8.829643124846	0.099998179798
2	14521	8.929641304627	0.099998179781
2	14695	9.029639484391	0.099998179764
2	14865	9.129637664138	0.099998179747
2	15117	9.229643579913	0.100005915775
2	15287	9.329641759625	0.099998179712
2	15457	9.42963993932	0.099998179695
2	15627	9.529638118997	0.099998179677
2	15797	9.629636298657	0.09999817966
2	15967	9.729647478301	0.100011179644
2	16137	9.829645657927	0.099998179626
2	16307	9.929643838618	0.099998180691
2	16481	10.029642017073	0.099998178455
2	16651	10.129640196552	0.099998179479
2	16903	10.229646313517	0.100006116965
2	17073	10.329644494786	0.099998181269
2	17249	10.42964267973	0.099998184944
2	17413	10.529640857479	0.099998177749
2	17589	10.629639040166	0.099998182687
2	17943	10.729648404817	0.100009364651
2	18113	10.829646584048	0.099998179231
2	18283	10.929644765784	0.099998181736
2	18457	11.029642948006	0.099998182222
2	18627	11.129641129792	0.099998181786
2	18879	11.229647444373	0.100006314581
2	19049	11.329645626087	0.099998181714
2	19219	11.429643807776	0.099998181689
2	19389	11.529641989448	0.099998181672
2	19558	11.62964017112	0.099998181672
2	19728	11.729638352805	0.099998181685
2	19898	11.829636534522	0.099998181717
2	20068	11.929647716288	0.100011181766
2	20242	12.029645898123	0.099998181835
2	20412	12.129644080045	0.099998181922
2	20662	12.229637590141	0.099993510096
2	20832	12.329648772297	0.100011182156
2	21002	12.4296469546	0.099998182303
2	21171	12.529645137072	0.099998182472
2	21341	12.62964331973	0.099998182658
2	21511	12.729641502595	0.099998182865
2	21678	12.829639685686	0.099998183091
2	21847	12.929637869024	0.099998183338
2	22019	13.029649052626	0.100011183602
2	22186	13.12964723651	0.099998183884
2	22435	13.229640933378	0.099993696868
2	22603	13.329639117881	0.099998184503
2	22770	13.429637302718	0.099998184837
2	22936	13.529648487905	0.100011185187
2	23104	13.629646673458	0.099998185553
2	23271	13.729644859392	0.099998185934
2	23437	13.829643045723	0.099998186331
2	23604	13.929641232464	0.099998186741
2	23774	14.029639419629	0.099998187165
2	23940	14.129637607231	0.099998187602
2	24188	14.229644481372	0.100006874141
2	24355	14.329642669894	0.099998188522
2	24521	14.429640858899	0.099998189005
2	24687	14.529639048405	0.099998189506
2	24853	14.629637238427	0.099998190022
2	25019	14.729648428983	0.100011190556
2	25185	14.829646620088	0.099998191105
2	25351	14.929644811759	0.099998191671
2	25521	15.02964300401	0.099998192251
2	25687	15.129641196855	0.099998192845
2	25926	15.229648239859	0.100007043004
2	26092	15.329646433935	0.099998194076
2	26258	15.429644628644	0.099998194709
2	26424	15.529642823997	0.099998195353
2	26590	15.629641020001	0.099998196004
2	26756	15.729639216668	0.099998196667
2	26922	15.829637414003	0.099998197335
2	27088	15.929648612015	0.100011198012
2	27258	16.029646810707	0.099998198692
2	27424	16.129645010085	0.099998199378
2	27651	16.229639218357	0.099994208272
2	27817	16.329637419118	0.099998200761
2	27983	16.429648620573	0.100011201455
2	28149	16.529646822726	0.099998202153
2	28315	16.629645025577	0.099998202851
2	28481	16.729643229126	0.099998203549
2	28647	16.829641433373	0.099998204247
2	28813	16.929639638318	0.099998204945
2	28983	17.029637843959	0.099998205641
2	29149	17.129649050296	0.100011206337
2	29373	17.229643423608	0.099994373312
2	29539	17.329641631329	0.099998207721
2	29705	17.429639839741	0.099998208412
2	29871	17.529638048838	0.099998209097
2	30037	17.62963625862	0.099998209782
2	30203	17.729647469084	0.100011210464
2	30369	17.829645680226	0.099998211142
2	30535	17.929643892043	0.099998211817
2	30705	18.02964210453	0.099998212487
2	30871	18.129640317686	0.099998213156
2	31095	18.229647856521	0.100007538835
2	31261	18.329646071002	0.099998214481
2	31427	18.429644286139	0.099998215137
2	31593	18.52964250193	0.099998215791
2	31759	18.629640718371	0.099998216441
2	31925	18.729638935456	0.099998217085
2	32091	18.829637153185	0.099998217729
2	32257	18.929648371549	0.100011218364
2	32427	19.029646590548	0.099998218999
2	32593	19.129644810177	0.099998219629
2	32817	19.229639514827	0.09999470465
2	32983	19.329637735702	0.099998220875
2	33149	19.429648957194	0.100011221492
2	33315	19.529647179301	0.099998222107
2	33481	19.629645402016	0.099998222715
2	33647	19.729643625337	0.099998223321
2	33813	19.829641849257	0.09999822392
2	33979	19.929640073775	0.099998224518
2	34149	20.029638298884	0.099998225109
2	34315	20.12963652458	0.099998225696
2	34539	20.229644395155	0.100007870575
2	34768	20.329637702234	0.099993307079
2	34934	20.429648929669	0.100011227435
2	35100	20.529647157673	0.099998228004
2	35266	20.629645386244	0.099998228571
2	35432	20.729643615377	0.099998229133
2	35598	20.829641845067	0.09999822969
2	35764	20.929640075308	0.099998230241
2	35934	21.0296383061	0.099998230792
2	36100	21.129636537435	0.099998231335
2	36324	21.229644573991	0.100008036556
2	36490	21.329642806401	0.09999823241
2	36656	21.429641039341	0.09999823294
2	36822	21.529639272807	0.099998233466
2	36988	21.629637506795	0.099998233988
2	37154	21.7296487413	0.100011234505
2	37320	21.829646976318	0.099998235018
2	37486	21.929645211845	0.099998235527
2	37656	22.029643447876	0.099998236031
2	37822	22.129641684406	0.09999823653
2	38046	22.229636886993	0.099995202587
2	38212	22.329648124509	0.100011237516
2	38378	22.42964636251	0.099998238001
2	38544	22.529644600993	0.099998238483
2	38710	22.629642839955	0.099998238962
2	39066	22.729639327672	0.099996487717
2	39232	22.829637567574	0.099998239902
2	39398	22.929648807941	0.100011240367
2	39568	23.029647048767	0.099998240826
2	39734	23.129645290048	0.099998241281
2	39958	23.229640658722	0.099995368674
2	40124	23.329638900902	0.09999824218
2	40290	23.429637143522	0.09999824262
2	40456	23.529648386581	0.100011243059
2	40622	23.629646630074	0.099998243493
2	40788	23.729644873996	0.099998243922
2	40954	23.829643118344	0.099998244348
2	41120	23.929641363111	0.099998244767
2	41290	24.029639608296	0.099998245185
2	41456	24.129637853895	0.099998245599
2	41680	24.229646388707	0.100008534812
2	41846	24.329644635118	0.099998246411
2	42012	24.429642881928	0.09999824681
2	42178	24.529641129135	0.099998247207
2	42344	24.629639376735	0.0999982476
2	42510	24.729637624722	0.099998247987
2	42676	24.829648873094	0.100011248372
2	42842	24.929647121847	0.099998248753
2	43012	25.029645370974	0.099998249127
2	43175	25.129643620473	0.099998249499
2	43390	25.229645232094	0.100001611621
2	43553	25.329643482325	0.099998250231
2	43716	25.429641732918	0.099998250593
2	43878	25.529639983868	0.09999825095
2	44038	25.629638235169	0.099998251301
2	44198	25.72963648682	0.099998251651
2	44358	25.829647738817	0.100011251997
2	44518	25.929645991154	0.099998252337
2	44679	26.02964424383	0.099998252676
2	44836	26.12964249684	0.09999825301
2	45033	26.229643107238	0.100000610398
2	45190	26.329641360907	0.099998253669
2	45347	26.429639614899	0.099998253992
2	45501	26.52963786921	0.099998254311
2	45655	26.629649123839	0.100011254629
2	45809	26.729647378782	0.099998254943
2	45963	26.829645634032	0.09999825525
2	46117	26.929643889588	0.099998255556
2	46275	27.029642145448	0.09999825586
2	46429	27.129640401606	0.099998256158
2	46617	27.22963865806	0.099998256454
2	46771	27.329636914807	0.099998256747
2	46925	27.429648171842	0.100011257035
2	47079	27.529646429164	0.099998257322
2	47233	27.629644686768	0.099998257604
2	47387	27.729642944653	0.099998257885
2	47541	27.829641202814	0.099998258161
2	47695	27.929639461249	0.099998258435
2	47853	28.029637719954	0.099998258705
2	48007	28.129648978926	0.100011258972
2	48195	28.229647238162	0.099998259236
2	48349	28.329645497659	0.099998259497
2	48503	28.429643757413	0.099998259754
2	48657	28.529642017423	0.09999826001
2	48811	28.629640277685	0.099998260262
2	48965	28.729638538196	0.099998260511
2	49119	28.829636798953	0.099998260757
2	49273	28.929648059952	0.100011260999
2	49431	29.029646321193	0.099998261241
2	49585	29.129644582672	0.099998261479
2	49773	29.229642844386	0.099998261714
2	49927	29.329641106331	0.099998261945
2	50081	29.429639368506	0.099998262175
2	50235	29.529637630908	0.099998262402
2	50389	29.629648893535	0.100011262627
2	50543	29.729647156383	0.099998262848
2	50697	29.82964541945	0.099998263067
2	50851	29.929643682733	0.099998263283
2	51009	30.029641946231	0.099998263498
2	51163	30.12964020994	0.099998263709
2	51351	30.229638473857	0.099998263917
2	51505	30.329636737979	0.099998264122
2	51659	30.429648002307	0.100011264328
2	51813	30.529646266835	0.099998264528
2	51967	30.629644531562	0.099998264727
2	52121	30.729642796486	0.099998264924
2	52275	30.829641061603	0.099998265117
2	52429	30.929639326912	0.099998265309
2	52587	31.029637592412	0.0999982655
2	52741	31.129648858098	0.100011265686
2	52929	31.229647123969	0.099998265871
2	53083	31.329645390024	0.099998266055
2	53237	31.429643656259	0.099998266235
2	53391	31.529641922672	0.099998266413
2	53545	31.629640189261	0.099998266589
2	53699	31.729638456024	0.099998266763
2	53853	31.829636722959	0.099998266935
2	54007	31.929647990064	0.100011267105
2	54165	32.029646257337	0.099998267273
2	54319	32.129644524775	0.099998267438
2	54507	32.229642792376	0.099998267601
2	54661	32.329641060141	0.099998267765
2	54815	32.429639328064	0.099998267923
2	54969	32.529637596145	0.099998268081
2	55123	32.629648864382	0.100011268237
2	55277	32.729647132772	0.09999826839
2	55431	32.829645401315	0.099998268543
2	55585	32.929643670008	0.099998268693
2	55743	33.02964193885	0.099998268842
2	55897	33.129640207838	0.099998268988
2	56085	33.229638476971	0.099998269133
2	56239	33.329636746246	0.099998269275
2	56393	33.429648015662	0.100011269416
2	56547	33.529646285218	0.099998269556
2	56701	33.629644554911	0.099998269693
2	56855	33.729642824741	0.09999826983
2	57009	33.829641094704	0.099998269963
2	57163	33.929639364801	0.099998270097
2	57321	34.029637635027	0.099998270226
2	57475	34.129648905384	0.100011270357
2	57663	34.229647175868	0.099998270484
2	57817	34.329645446477	0.099998270609
2	57971	34.429643717212	0.099998270735
2	58125	34.529641988069	0.099998270857
2	58279	34.629640259048	0.099998270979
2	58433	34.729638530146	0.099998271098
2	58587	34.829636801363	0.099998271217
2	58741	34.929648072696	0.100011271333
2	58899	35.029646344145	0.099998271449
2	59053	35.129644615709	0.099998271564
2	59241	35.229642887384	0.099998271675
2	59395	35.329641159171	0.099998271787
2	59549	35.429639431067	0.099998271896
2	59703	35.529637703071	0.099998272004
2	59857	35.629648975181	0.10001127211
2	60011	35.729647247398	0.099998272217
2	60165	35.82964551972	0.099998272322
2	60319	35.929643792145	0.099998272425
2	60477	36.029642064671	0.099998272526
2	60631	36.129640337296	0.099998272625
2	60819	36.22963861002	0.099998272724
2	60973	36.329636882842	0.099998272822
2	61127	36.429648155762	0.10001127292
2	61281	36.529646428776	0.099998273014
2	61435	36.629644701886	0.09999827311
2	61589	36.729642975088	0.099998273202
2	61743	36.829641248382	0.099998273294
2	61897	36.929639521767	0.099998273385
2	62055	37.029637795241	0.099998273474
2	62209	37.129649068804	0.100011273563
2	62397	37.229647342452	0.099998273648
2	62551	37.329645616176	0.099998273724
2	62705	37.429643889902	0.099998273726
2	62859	37.529642163638	0.099998273736
2	63013	37.629640437385	0.099998273747
2	63167	37.729638711153	0.099998273768
2	63321	37.829636984848	0.099998273695
2	63475	37.929648258419	0.100011273571
2	63633	38.029646531936	0.099998273517
2	63787	38.129644805433	0.099998273497
2	63975	38.229643078932	0.099998273499
2	64129	38.329641352412	0.09999827348
2	64283	38.429639625903	0.099998273491
2	64437	38.529637899379	0.099998273476
2	64591	38.629636172867	0.099998273488
2	64745	38.7296474464	0.100011273533
2	64899	38.829645719896	0.099998273496
2	65053	38.929643993333	0.099998273437
2	65211	39.029642266752	0.099998273419
2	65365	39.129640540203	0.099998273451
2	65553	39.229638813723	0.09999827352
2	65707	39.329637087358	0.099998273635
2	65861	39.429648361231	0.100011273873
2	66015	39.529646635252	0.099998274021
2	66169	39.629644909386	0.099998274134
2	66323	39.729643183753	0.099998274367
2	66477	39.829641458279	0.099998274526
2	66631	39.929639733067	0.099998274788
2	66789	40.029638008262	0.099998275195
2	66943	40.12963628371	0.099998275448
2	67131	40.229647559341	0.100011275631
2	67285	40.329645835172	0.099998275831
2	67439	40.429644111092	0.09999827592
2	67593	40.529642387069	0.099998275977
2	67747	40.629640663102	0.099998276033
2	67901	40.729638939188	0.099998276086
2	68055	40.829637215331	0.099998276143
2	68209	40.929648491528	0.100011276197
2	68367	41.029646767776	0.099998276248
2	68521	41.129645044078	0.099998276302
2	68709	41.229643320433	0.099998276355
2	68863	41.329641596839	0.099998276406
2	69017	41.429639873294	0.099998276455
2	69171	41.5296381498	0.099998276506
2	69325	41.629636426354	0.099998276554
3	829	1.22964167464	2
3	999	1.329639852403	2
3	1169	1.429638030226	2
3	1339	1.529636208133	2
3	1509	1.629647386144	2
3	1679	1.729645564272	2
3	1849	1.829643742529	2
3	2019	1.929641920925	2
3	2193	2.029640099468	2
3	2363	2.129638278161	2
3	2615	2.229642889978	2
3	2785	2.329641068979	2
3	2955	2.429639248134	2
3	3125	2.529637427445	2
3	3295	2.629648606908	2
3	3465	2.729646786518	2
3	3635	2.829644966267	2
3	3805	2.929643146148	2
3	3979	3.029641326151	2
3	4149	3.129639506266	2
3	4401	3.229644275675	2
3	4571	3.329642455985	2
3	4741	3.429640636376	2
3	4911	3.529638816837	2
3	5081	3.629636997359	2
3	5251	3.729648177931	2
3	5421	3.829646358545	2
3	5591	3.929644539192	2
3	5765	4.029642719864	2
3	5935	4.129640900553	2
3	6187	4.229645848529	2
3	6357	4.329644029234	2
3	6527	4.42964220994	2
3	6697	4.529640390642	2
3	6867	4.629638571334	2
3	7037	4.729636752013	2
3	7207	4.829647932678	2
3	7377	4.929646113325	2
3	7551	5.02964429395	2
3	7721	5.129642474555	2
3	7973	5.229647610513	2
3	8143	5.32964579107	2
3	8313	5.429643971601	2
3	8483	5.529642152105	2
3	8653	5.629640332584	2
3	8823	5.729638513038	2
3	8993	5.829636693464	2
3	9163	5.929647873865	2
3	9337	6.029646054241	2
3	9507	6.12964423459	2
3	9759	6.229636562711	2
3	9929	6.329647743011	2
3	10099	6.429645923286	2
3	10269	6.529644103538	2
3	10439	6.629642283767	2
3	10609	6.729640463972	2
3	10779	6.829638644155	2
3	10949	6.929636824315	2
3	11123	7.029648004456	2
3	11293	7.129646184574	2
3	11545	7.229638707165	2
3	11715	7.329636887242	2
3	11885	7.429648067299	2
3	12055	7.529646247337	2
3	12225	7.629644427356	2
3	12395	7.729642607355	2
3	12565	7.829640787334	2
3	12735	7.929638967295	2
3	12909	8.029637147238	2
3	13079	8.129648327163	2
3	13331	8.229641045789	2
3	13501	8.329639225676	2
3	13671	8.429637405545	2
3	13841	8.529648585397	2
3	14011	8.629646765231	2
3	14181	8.729644945048	2
3	14351	8.829643124846	2
3	14521	8.929641304627	2
3	14695	9.029639484391	2
3	14865	9.129637664138	2
3	15117	9.229643579913	2
3	15287	9.329641759625	2
3	15457	9.42963993932	2
3	15627	9.529638118997	2
3	15797	9.629636298657	2
3	15967	9.729647478301	2
3	16137	9.829645657927	2
3	16307	9.929643838618	2
3	16481	10.029642017073	2
3	16651	10.129640196552	2
3	16903	10.229646313517	2
3	17073	10.329644494786	2
3	17249	10.42964267973	2
3	17413	10.529640857479	2
3	17589	10.629639040166	2
3	17943	10.729648404817	2
3	18113	10.829646584048	2
3	18283	10.929644765784	2
3	18457	11.029642948006	2
3	18627	11.129641129792	2
3	18879	11.229647444373	2
3	19049	11.329645626087	2
3	19219	11.429643807776	2
3	19389	11.529641989448	2
3	19558	11.62964017112	2
3	19728	11.729638352805	2
3	19898	11.829636534522	2
3	20068	11.929647716288	2
3	20242	12.029645898123	2
3	20412	12.129644080045	2
3	20662	12.229637590141	2
3	20832	12.329648772297	2
3	21002	12.4296469546	2
3	21171	12.529645137072	2
3	21341	12.62964331973	2
3	21511	12.729641502595	2
3	21678	12.829639685686	2
3	21847	12.929637869024	2
3	22019	13.029649052626	2
3	22186	13.12964723651	2
3	22435	13.229640933378	2
3	22603	13.329639117881	2
3	22770	13.429637302718	2
3	22936	13.529648487905	2
3	23104	13.629646673458	2
3	23271	13.729644859392	2
3	23437	13.829643045723	2
3	23604	13.929641232464	2
3	23774	14.029639419629	2
3	23940	14.129637607231	2
3	24188	14.229644481372	2
3	24355	14.329642669894	2
3	24521	14.429640858899	2
3	24687	14.529639048405	2
3	24853	14.629637238427	2
3	25019	14.729648428983	2
3	25185	14.829646620088	2
3	25351	14.929644811759	2
3	25521	15.02964300401	2
3	25687	15.129641196855	2
3	25926	15.229648239859	2
3	26092	15.329646433935	2
3	26258	15.429644628644	2
3	26424	15.529642823997	2
3	26590	15.629641020001	2
3	26756	15.729639216668	2
3	26922	15.829637414003	2
3	27088	15.929648612015	2
3	27258	16.029646810707	2
3	27424	16.129645010085	2
3	27651	16.229639218357	2
3	27817	16.329637419118	2
3	27983	16.429648620573	2
3	28149	16.529646822726	2
3	28315	16.629645025577	2
3	28481	16.729643229126	2
3	28647	16.829641433373	2
3	28813	16.929639638318	2
3	28983	17.029637843959	2
3	29149	17.129649050296	2
3	29373	17.229643423608	2
3	29539	17.329641631329	2
3	29705	17.429639839741	2
3	29871	17.529638048838	2
3	30037	17.62963625862	2
3	30203	17.729647469084	2
3	30369	17.829645680226	2
3	30535	17.929643892043	2
3	30705	18.02964210453	2
3	30871	18.129640317686	2
3	31095	18.229647856521	2
3	31261	18.329646071002	2
3	31427	18.429644286139	2
3	31593	18.52964250193	2
3	31759	18.629640718371	2
3	31925	18.729638935456	2
3	32091	18.829637153185	2
3	32257	18.929648371549	2
3	32427	19.029646590548	2
3	32593	19.129644810177	2
3	32817	19.229639514827	2
3	32983	19.329637735702	2
3	33149	19.429648957194	2
3	33315	19.529647179301	2
3	33481	19.629645402016	2
3	33647	19.729643625337	2
3	33813	19.829641849257	2
3	33979	19.929640073775	2
3	34149	20.029638298884	2
3	34315	20.12963652458	2
3	34539	20.229644395155	2
3	34768	20.329637702234	2
3	34934	20.429648929669	2
3	35100	20.529647157673	2
3	35266	20.629645386244	2
3	35432	20.729643615377	2
3	35598	20.829641845067	2
3	35764	20.929640075308	2
3	35934	21.0296383061	2
3	36100	21.129636537435	2
3	36324	21.229644573991	2
3	36490	21.329642806401	2
3	36656	21.429641039341	2
3	36822	21.529639272807	2
3	36988	21.629637506795	2
3	37154	21.7296487413	2
3	37320	21.829646976318	2
3	37486	21.929645211845	2
3	37656	22.029643447876	2
3	37822	22.129641684406	2
3	38046	22.229636886993	2
3	38212	22.329648124509	2
3	38378	22.42964636251	2
3	38544	22.529644600993	2
3	38710	22.629642839955	2
3	39066	22.729639327672	2
3	39232	22.829637567574	2
3	39398	22.929648807941	2
3	39568	23.029647048767	2
3	39734	23.129645290048	2
3	39958	23.229640658722	2
3	40124	23.329638900902	2
3	40290	23.429637143522	2
3	40456	23.529648386581	2
3	40622	23.629646630074	2
3	40788	23.729644873996	2
3	40954	23.829643118344	2
3	41120	23.929641363111	2
3	41290	24.029639608296	2
3	41456	24.129637853895	2
3	41680	24.229646388707	2
3	41846	24.329644635118	2
3	42012	24.429642881928	2
3	42178	24.529641129135	2
3	42344	24.629639376735	2
3	42510	24.729637624722	2
3	42676	24.829648873094	2
3	42842	24.929647121847	2
3	43012	25.029645370974	2
3	43175	25.129643620473	2
3	43390	25.229645232094	2
3	43553	25.329643482325	2
3	43716	25.429641732918	2
3	43878	25.529639983868	2
3	44038	25.629638235169	2
3	44198	25.72963648682	2
3	44358	25.829647738817	2
3	44518	25.929645991154	2
3	44679	26.02964424383	2
3	44836	26.12964249684	2
3	45033	26.229643107238	2
3	45190	26.329641360907	2
3	45347	26.429639614899	2
3	45501	26.52963786921	2
3	45655	26.629649123839	2
3	45809	26.729647378782	2
3	45963	26.829645634032	2
3	46117	26.929643889588	2
3	46275	27.029642145448	2
3	46429	27.129640401606	2
3	46617	27.22963865806	2
3	46771	27.329636914807	2
3	46925	27.429648171842	2
3	47079	27.529646429164	2
3	47233	27.629644686768	2
3	47387	27.729642944653	2
3	47541	27.829641202814	2
3	47695	27.929639461249	2
3	47853	28.029637719954	2
3	48007	28.129648978926	2
3	48195	28.229647238162	2
3	48349	28.329645497659	2
3	48503	28.429643757413	2
3	48657	28.529642017423	2
3	48811	28.629640277685	2
3	48965	28.729638538196	2
3	49119	28.829636798953	2
3	49273	28.929648059952	2
3	49431	29.029646321193	2
3	49585	29.129644582672	2
3	49773	29.229642844386	2
3	49927	29.329641106331	2
3	50081	29.429639368506	2
3	50235	29.529637630908	2
3	50389	29.629648893535	2
3	50543	29.729647156383	2
3	50697	29.82964541945	2
3	50851	29.929643682733	2
3	51009	30.029641946231	2
3	51163	30.12964020994	2
3	51351	30.229638473857	2
3	51505	30.329636737979	2
3	51659	30.429648002307	2
3	51813	30.529646266835	2
3	51967	30.629644531562	2
3	52121	30.729642796486	2
3	52275	30.829641061603	2
3	52429	30.929639326912	2
3	52587	31.029637592412	2
3	52741	31.129648858098	2
3	52929	31.229647123969	2
3	53083	31.329645390024	2
3	53237	31.429643656259	2
3	53391	31.529641922672	2
3	53545	31.629640189261	2
3	53699	31.729638456024	2
3	53853	31.829636722959	2
3	54007	31.929647990064	2
3	54165	32.029646257337	2
3	54319	32.129644524775	2
3	54507	32.229642792376	2
3	54661	32.329641060141	2
3	54815	32.429639328064	2
3	54969	32.529637596145	2
3	55123	32.629648864382	2
3	55277	32.729647132772	2
3	55431	32.829645401315	2
3	55585	32.929643670008	2
3	55743	33.02964193885	2
3	55897	33.129640207838	2
3	56085	33.229638476971	2
3	56239	33.329636746246	2
3	56393	33.429648015662	2
3	56547	33.529646285218	2
3	56701	33.629644554911	2
3	56855	33.729642824741	2
3	57009	33.829641094704	2
3	57163	33.929639364801	2
3	57321	34.029637635027	2
3	57475	34.129648905384	2
3	57663	34.229647175868	2
3	57817	34.329645446477	2
3	57971	34.429643717212	2
3	58125	34.529641988069	2
3	58279	34.629640259048	2
3	58433	34.729638530146	2
3	58587	34.829636801363	2
3	58741	34.929648072696	2
3	58899	35.029646344145	2
3	59053	35.129644615709	2
3	59241	35.229642887384	2
3	59395	35.329641159171	2
3	59549	35.429639431067	2
3	59703	35.529637703071	2
3	59857	35.629648975181	2
3	60011	35.729647247398	2
3	60165	35.82964551972	2
3	60319	35.929643792145	2
3	60477	36.029642064671	2
3	60631	36.129640337296	2
3	60819	36.22963861002	2
3	60973	36.329636882842	2
3	61127	36.429648155762	2
3	61281	36.529646428776	2
3	61435	36.629644701886	2
3	61589	36.729642975088	2
3	61743	36.829641248382	2
3	61897	36.929639521767	2
3	62055	37.029637795241	2
3	62209	37.129649068804	2
3	62397	37.229647342452	2
3	62551	37.329645616176	2
3	62705	37.429643889902	2
3	62859	37.529642163638	2
3	63013	37.629640437385	2
3	63167	37.729638711153	2
3	63321	37.829636984848	2
3	63475	37.929648258419	2
3	63633	38.029646531936	2
3	63787	38.129644805433	2
3	63975	38.229643078932	2
3	64129	38.329641352412	2
3	64283	38.429639625903	2
3	64437	38.529637899379	2
3	64591	38.629636172867	2
3	64745	38.7296474464	2
3	64899	38.829645719896	2
3	65053	38.929643993333	2
3	65211	39.029642266752	2
3	65365	39.129640540203	2
3	65553	39.229638813723	2
3	65707	39.329637087358	2
3	65861	39.429648361231	2
3	66015	39.529646635252	2
3	66169	39.629644909386	2
3	66323	39.729643183753	2
3	66477	39.829641458279	2
3	66631	39.929639733067	2
3	66789	40.029638008262	2
3	66943	40.12963628371	2
3	67131	40.229647559341	2
3	67285	40.329645835172	2
3	67439	40.429644111092	2
3	67593	40.529642387069	2
3	67747	40.629640663102	2
3	67901	40.729638939188	2
3	68055	40.829637215331	2
3	68209	40.929648491528	2
3	68367	41.029646767776	2
3	68521	41.129645044078	2
3	68709	41.229643320433	2
3	68863	41.329641596839	2
3	69017	41.429639873294	2
3	69171	41.5296381498	2
3	69325	41.629636426354	2
4	872	1.254478704293	0.100001615425
4	1042	1.354476882099	0.099998177806
4	1212	1.45448805998	0.100011177881
4	1382	1.554486237954	0.099998177974
4	1552	1.65448441604	0.099998178086
4	1722	1.754482594248	0.099998178208
4	1892	1.85448077259	0.099998178342
4	2062	1.954478951074	0.099998178484
4	2236	2.054477129706	0.099998178632
4	2406	2.154488308488	0.100011178782
4	2658	2.254479920392	0.099991611904
4	2828	2.35447809948	0.099998179088
4	2998	2.45448927872	0.10001117924
4	3168	2.554487458113	0.099998179393
4	3338	2.654485637653	0.09999817954
4	3508	2.754483817335	0.099998179682
4	3678	2.854481997152	0.099998179817
4	3848	2.954480177096	0.099998179944
4	4022	3.054478357155	0.099998180059
4	4192	3.154476537321	0.099998180166
4	4444	3.254481306776	0.100004769455
4	4614	3.354479487125	0.099998180349
4	4784	3.454477667549	0.099998180424
4	4954	3.554488848039	0.10001118049
4	5124	3.654487028584	0.099998180545
4	5294	3.754485209174	0.09999818059
4	5464	3.854483389803	0.099998180629
4	5634	3.95448157046	0.099998180657
4	5808	4.054479751138	0.099998180678
4	5978	4.154477931831	0.099998180693
4	6230	4.254482879806	0.100004947975
4	6400	4.354481060508	0.099998180702
4	6570	4.454479241209	0.099998180701
4	6740	4.554477421904	0.099998180695
4	6910	4.654488602586	0.100011180682
4	7080	4.754486783255	0.099998180669
4	7250	4.854484963907	0.099998180652
4	7420	4.95448314454	0.099998180633
4	7594	5.05448132515	0.09999818061
4	7764	5.154479505739	0.099998180589
4	8016	5.254484641682	0.100005135943
4	8186	5.354482822222	0.09999818054
4	8356	5.454481002735	0.099998180513
4	8526	5.554479183222	0.099998180487
4	8696	5.654477363684	0.099998180462
4	8866	5.754488544118	0.100011180434
4	9036	5.854486724527	0.099998180409
4	9206	5.95448490491	0.099998180383
4	9380	6.054483085268	0.099998180358
4	9550	6.1544812656	0.099998180332
4	9802	6.254486593703	0.100005328103
4	9972	6.354484773985	0.099998180282
4	10142	6.454482954242	0.099998180257
4	10312	6.554481134476	0.099998180234
4	10482	6.654479314688	0.099998180212
4	10652	6.754477494875	0.099998180187
4	10822	6.854488675041	0.100011180166
4	10992	6.954486855185	0.099998180144
4	11166	7.054485035309	0.099998180124
4	11336	7.154483215411	0.099998180102
4	11588	7.254488737985	0.100005522574
4	11758	7.354486918046	0.099998180061
4	11928	7.454485098087	0.099998180041
4	12098	7.554483278109	0.099998180022
4	12268	7.654481458112	0.099998180003
4	12438	7.754479638095	0.099998179983
4	12608	7.854477818059	0.099998179964
4	12778	7.954488998005	0.100011179946
4	12952	8.054487177932	0.099998179927
4	13122	8.154485357842	0.09999817991
4	13374	8.254478076454	0.099992718612
4	13544	8.354489256326	0.100011179872
4	13714	8.45448743618	0.099998179854
4	13884	8.554485616017	0.099998179837
4	14054	8.654483795837	0.09999817982
4	14224	8.75448197564	0.099998179803
4	14394	8.854480155424	0.099998179784
4	14564	8.954478335191	0.099998179767
4	14738	9.054489514941	0.10001117975
4	14908	9.154487694674	0.099998179733
4	15160	9.254480610436	0.099992915762
4	15330	9.354478790134	0.099998179698
4	15500	9.454476969815	0.099998179681
4	15670	9.554488149479	0.100011179664
4	15840	9.654486329126	0.099998179647
4	16010	9.754484508757	0.099998179631
4	16180	9.854482689513	0.099998180756
4	16350	9.954480869401	0.099998179888
4	16524	10.054479051126	0.099998181725
4	16694	10.154477231401	0.099998180275
4	16946	10.254483344377	0.100006112976
4	17116	10.354481526044	0.099998181667
4	17286	10.45447970807	0.099998182026
4	17456	10.554477888281	0.099998180211
4	17626	10.654489070045	0.100011181764
4	17986	10.754485435561	0.099996365516
4	18156	10.854483614776	0.099998179215
4	18326	10.954481796492	0.099998181716
4	18500	11.054479978696	0.099998182204
4	18670	11.154478160466	0.09999818177
4	18922	11.254484475034	0.100006314568
4	19092	11.35448265674	0.099998181706
4	19262	11.454480838426	0.099998181686
4	19432	11.554479020103	0.099998181677
4	19601	11.654477201787	0.099998181684
4	19771	11.754488383491	0.100011181704
4	19941	11.854486565235	0.099998181744
4	20111	11.954484747036	0.099998181801
4	20285	12.054482928913	0.099998181877
4	20454	12.154481110886	0.099998181973
4	20705	12.254487621041	0.100006510155
4	20875	12.354485803263	0.099998182222
4	21045	12.45448398564	0.099998182377
4	21214	12.554482168192	0.099998182552
4	21384	12.654480350939	0.099998182747
4	21553	12.754478533899	0.09999818296
4	21720	12.854476717091	0.099998183192
4	21890	12.954487900537	0.100011183446
4	22062	13.054486084252	0.099998183715
4	22228	13.154484268256	0.099998184004
4	22478	13.254477965247	0.099993696991
4	22645	13.35448914988	0.100011184633
4	22812	13.454487334851	0.099998184971
4	22978	13.554485520176	0.099998185325
4	23146	13.65448370587	0.099998185694
4	23313	13.75448189195	0.09999818608
4	23479	13.85448007843	0.09999818648
4	23646	13.954478265324	0.099998186894
4	23816	14.054489452644	0.10001118732
4	23982	14.154487640404	0.09999818776
4	24230	14.254481514707	0.099993874303
4	24397	14.354479703395	0.099998188688
4	24563	14.454477892571	0.099998189176
4	24729	14.55448908225	0.100011189679
4	24895	14.654487272449	0.099998190199
4	25061	14.754485463186	0.099998190737
4	25227	14.854483654474	0.099998191288
4	25393	14.954481846331	0.099998191857
4	25563	15.054480038771	0.09999819244
4	25729	15.154478231807	0.099998193036
4	25968	15.254485275004	0.100007043197
4	26134	15.354483469273	0.099998194269
4	26300	15.454481664178	0.099998194905
4	26466	15.554479859726	0.099998195548
4	26632	15.654478055926	0.0999981962
4	26798	15.754489252788	0.100011196862
4	26964	15.854487450318	0.09999819753
4	27130	15.954485648524	0.099998198206
4	27300	16.054483847409	0.099998198885
4	27466	16.154482046978	0.099998199569
4	27693	16.25448925544	0.100007208462
4	27859	16.354487456389	0.099998200949
4	28025	16.45448565803	0.099998201641
4	28191	16.554483860367	0.099998202337
4	28357	16.654482063399	0.099998203032
4	28523	16.754480267127	0.099998203728
4	28689	16.85447847155	0.099998204423
4	28855	16.954476676669	0.099998205119
4	29025	17.05448788248	0.100011205811
4	29191	17.154486088985	0.099998206505
4	29415	17.254480462461	0.099994373476
4	29581	17.354478670346	0.099998207885
4	29747	17.454476878916	0.09999820857
4	29913	17.55448808817	0.100011209254
4	30079	17.654486298106	0.099998209936
4	30245	17.754484508721	0.099998210615
4	30411	17.854482720011	0.09999821129
4	30577	17.954480931973	0.099998211962
4	30747	18.054479144603	0.09999821263
4	30913	18.154477357899	0.099998213296
4	31137	18.25448489687	0.100007538971
4	31303	18.354483111485	0.099998214615
4	31469	18.454481326754	0.099998215269
4	31635	18.554479542674	0.09999821592
4	31801	18.654477759241	0.099998216567
4	31967	18.754488976451	0.10001121721
4	32133	18.854487194301	0.09999821785
4	32299	18.954485412785	0.099998218484
4	32469	19.054483631901	0.099998219116
4	32635	19.154481851644	0.099998219743
4	32859	19.254476556406	0.099994704762
4	33025	19.354487777392	0.100011220986
4	33191	19.454485998993	0.099998221601
4	33357	19.554484221206	0.099998222213
4	33523	19.654482444025	0.099998222819
4	33689	19.754480667447	0.099998223422
4	33855	19.854478891468	0.099998224021
4	34021	19.954477116083	0.099998224615
4	34191	20.054488341288	0.100011225205
4	34357	20.154486567079	0.099998225791
4	34581	20.254481437747	0.099994870668
4	34810	20.354487744916	0.100006307169
4	34976	20.45448597244	0.099998227524
4	35142	20.554484200531	0.099998228091
4	35308	20.654482429187	0.099998228656
4	35474	20.754480658404	0.099998229217
4	35640	20.854478888175	0.099998229771
4	35806	20.954477118498	0.099998230323
4	35976	21.054488349368	0.10001123087
4	36142	21.15448658078	0.099998231412
4	36366	21.254481617412	0.099995036632
4	36532	21.354479849895	0.099998232483
4	36698	21.454478082908	0.099998233013
4	36864	21.554489316446	0.100011233538
4	37030	21.654487550504	0.099998234058
4	37196	21.754485785078	0.099998234574
4	37362	21.854484020162	0.099998235084
4	37528	21.954482255755	0.099998235593
4	37698	22.05448049185	0.099998236095
4	37864	22.154478728443	0.099998236593
4	38088	22.254486931092	0.100008202649
4	38254	22.354485168668	0.099998237576
4	38420	22.454483406728	0.09999823806
4	38586	22.55448164527	0.099998238542
4	38752	22.654479884289	0.099998239019
4	39108	22.754489372061	0.100009487772
4	39274	22.854487612018	0.099998239957
4	39440	22.954485852438	0.09999824042
4	39610	23.054484093317	0.099998240879
4	39776	23.154482334648	0.099998241331
4	40000	23.254477703372	0.099995368724
4	40166	23.354488945601	0.100011242229
4	40332	23.45448718827	0.099998242669
4	40498	23.554485431376	0.099998243106
4	40664	23.654483674914	0.099998243538
4	40830	23.754481918882	0.099998243968
4	40996	23.854480163274	0.099998244392
4	41162	23.954478408084	0.09999824481
4	41332	24.054476653311	0.099998245227
4	41498	24.154487898952	0.100011245641
4	41722	24.254483433804	0.099995534852
4	41888	24.354481680255	0.099998246451
4	42054	24.454479927103	0.099998246848
4	42220	24.554478174349	0.099998247246
4	42386	24.654489421986	0.100011247637
4	42552	24.754487670009	0.099998248023
4	42718	24.854485918417	0.099998248408
4	42884	24.954484167204	0.099998248787
4	43053	25.054482416365	0.099998249161
4	43216	25.154480665898	0.099998249533
4	43431	25.254482277551	0.100001611653
4	43594	25.354480527815	0.099998250264
4	43757	25.454478778438	0.099998250623
4	43917	25.554477029418	0.09999825098
4	44077	25.65448828075	0.100011251332
4	44237	25.75448653243	0.09999825168
4	44397	25.854484784454	0.099998252024
4	44557	25.954483036821	0.099998252367
4	44718	26.054481289523	0.099998252702
4	44875	26.15447954256	0.099998253037
4	45072	26.254480152984	0.100000610424
4	45229	26.354478406679	0.099998253695
4	45386	26.454476660695	0.099998254016
4	45540	26.554487915031	0.100011254336
4	45694	26.654486169684	0.099998254653
4	45848	26.75448442465	0.099998254966
4	46002	26.854482679922	0.099998255272
4	46156	26.954480935502	0.09999825558
4	46314	27.054479191382	0.09999825588
4	46468	27.154477447562	0.09999825618
4	46656	27.254488704037	0.100011256475
4	46810	27.354486960804	0.099998256767
4	46964	27.454485217859	0.099998257055
4	47118	27.5544834752	0.099998257341
4	47272	27.654481732824	0.099998257624
4	47426	27.754479990727	0.099998257903
4	47580	27.854478248906	0.099998258179
4	47734	27.954489507359	0.100011258453
4	47892	28.054487766081	0.099998258722
4	48046	28.15448602507	0.099998258989
4	48234	28.254484284322	0.099998259252
4	48388	28.354482543836	0.099998259514
4	48542	28.454480803605	0.099998259769
4	48696	28.554479063631	0.099998260026
4	48850	28.654477323908	0.099998260277
4	49004	28.754488584434	0.100011260526
4	49158	28.854486845205	0.099998260771
4	49312	28.954485106218	0.099998261013
4	49470	29.054483367472	0.099998261254
4	49624	29.154481628965	0.099998261493
4	49812	29.254479890691	0.099998261726
4	49966	29.354478152649	0.099998261958
4	50120	29.454489414837	0.100011262188
4	50274	29.554487677251	0.099998262414
4	50428	29.654485939889	0.099998262638
4	50582	29.754484202749	0.09999826286
4	50736	29.854482465828	0.099998263079
4	50890	29.954480729121	0.099998263293
4	51048	30.054478992631	0.09999826351
4	51202	30.15447725635	0.099998263719
4	51390	30.254488520276	0.100011263926
4	51544	30.354486784409	0.099998264133
4	51698	30.454485048746	0.099998264337
4	51852	30.554483313284	0.099998264538
4	52006	30.65448157802	0.099998264736
4	52160	30.754479842953	0.099998264933
4	52314	30.854478108079	0.099998265126
4	52468	30.954489373397	0.100011265318
4	52626	31.054487638905	0.099998265508
4	52780	31.154485904599	0.099998265694
4	52968	31.254484170478	0.099998265879
4	53122	31.35448243654	0.099998266062
4	53276	31.454480702783	0.099998266243
4	53430	31.554478969203	0.09999826642
4	53584	31.654477235799	0.099998266596
4	53738	31.754488502569	0.10001126677
4	53892	31.854486769511	0.099998266942
4	54046	31.954485036622	0.099998267111
4	54204	32.054483303902	0.09999826728
4	54358	32.154481571346	0.099998267444
4	54546	32.254479838954	0.099998267608
4	54700	32.354478106724	0.09999826777
4	54854	32.454489374653	0.100011267929
4	55008	32.55448764274	0.099998268087
4	55162	32.654485910982	0.099998268242
4	55316	32.754484179378	0.099998268396
4	55470	32.854482447926	0.099998268548
4	55624	32.954480716624	0.099998268698
4	55782	33.054478985471	0.099998268847
4	55936	33.154477254464	0.099998268993
4	56124	33.254488523602	0.100011269138
4	56278	33.354486792881	0.099998269279
4	56432	33.454485062302	0.099998269421
4	56586	33.554483331861	0.099998269559
4	56740	33.654481601559	0.099998269698
4	56894	33.754479871393	0.099998269834
4	57048	33.85447814136	0.099998269967
4	57202	33.954489411461	0.100011270101
4	57360	34.05448768169	0.099998270229
4	57514	34.154485952051	0.099998270361
4	57702	34.254484222538	0.099998270487
4	57856	34.354482493151	0.099998270613
4	58010	34.454480763889	0.099998270738
4	58164	34.554479034749	0.09999827086
4	58318	34.654477305731	0.099998270982
4	58472	34.754488576833	0.100011271102
4	58626	34.854486848052	0.099998271219
4	58780	34.954485119388	0.099998271336
4	58938	35.05448339084	0.099998271452
4	59092	35.154481662405	0.099998271565
4	59280	35.254479934084	0.099998271679
4	59434	35.354478205873	0.099998271789
4	59588	35.454489477771	0.100011271898
4	59742	35.554487749777	0.099998272006
4	59896	35.65448602189	0.099998272113
4	60050	35.75448429411	0.09999827222
4	60204	35.854482566434	0.099998272324
4	60358	35.954480838861	0.099998272427
4	60516	36.054479111388	0.099998272527
4	60670	36.154477384015	0.099998272627
4	60858	36.254488656741	0.100011272726
4	61012	36.354486929565	0.099998272824
4	61166	36.454485202487	0.099998272922
4	61320	36.554483475503	0.099998273016
4	61474	36.654481748615	0.099998273112
4	61628	36.754480021818	0.099998273203
4	61782	36.854478295114	0.099998273296
4	61936	36.9544765685	0.099998273386
4	62094	37.054487841976	0.100011273476
4	62248	37.154486115539	0.099998273563
4	62436	37.254484389177	0.099998273638
4	62590	37.354482662823	0.099998273646
4	62744	37.454480936481	0.099998273658
4	62898	37.554479210159	0.099998273678
4	63052	37.654477483859	0.0999982737
4	63206	37.754488757547	0.100011273688
4	63360	37.854487031193	0.099998273646
4	63514	37.954485304779	0.099998273586
4	63672	38.054483578337	0.099998273558
4	63826	38.154481851898	0.099998273561
4	64014	38.254480125491	0.099998273593
4	64168	38.354478399026	0.099998273535
4	64322	38.454476672427	0.099998273401
4	64476	38.554487945827	0.1000112734
4	64630	38.654486219264	0.099998273437
4	64784	38.754484492713	0.099998273449
4	64938	38.854482766303	0.09999827359
4	65092	38.954481039962	0.099998273659
4	65250	39.054479313529	0.099998273567
4	65404	39.154477587139	0.09999827361
4	65592	39.254488860772	0.100011273633
4	65746	39.354487134413	0.099998273641
4	65900	39.454485408194	0.099998273781
4	66054	39.554483682142	0.099998273948
4	66208	39.654481956227	0.099998274085
4	66362	39.754480230527	0.0999982743
4	66516	39.854478505035	0.099998274508
4	66670	39.954476779823	0.099998274788
4	66828	40.054488055019	0.100011275196
4	66982	40.154486330467	0.099998275448
4	67170	40.254484606099	0.099998275632
4	67324	40.35448288193	0.099998275831
4	67478	40.454481157849	0.099998275919
4	67632	40.554479433827	0.099998275978
4	67786	40.654477709859	0.099998276032
4	67940	40.754488985947	0.100011276088
4	68094	40.854487262089	0.099998276142
4	68248	40.954485538286	0.099998276197
4	68406	41.054483814535	0.099998276249
4	68560	41.154482090837	0.099998276302
4	68748	41.254480367192	0.099998276355
4	68902	41.354478643597	0.099998276405
4	69056	41.454476920053	0.099998276456
4	69210	41.554488196559	0.100011276506
4	69364	41.654486473113	0.099998276554
5	872	1.254478704293	1
5	1042	1.354476882099	1
5	1212	1.45448805998	1
5	1382	1.554486237954	1
5	1552	1.65448441604	1
5	1722	1.754482594248	1
5	1892	1.85448077259	1
5	2062	1.954478951074	1
5	2236	2.054477129706	1
5	2406	2.154488308488	1
5	2658	2.254479920392	1
5	2828	2.35447809948	1
5	2998	2.45448927872	1
5	3168	2.554487458113	1
5	3338	2.654485637653	1
5	3508	2.754483817335	1
5	3678	2.854481997152	1
5	3848	2.954480177096	1
5	4022	3.054478357155	1
5	4192	3.154476537321	1
5	4444	3.254481306776	1
5	4614	3.354479487125	1
5	4784	3.454477667549	1
5	4954	3.554488848039	1
5	5124	3.654487028584	1
5	5294	3.754485209174	1
5	5464	3.854483389803	1
5	5634	3.95448157046	1
5	5808	4.054479751138	1
5	5978	4.154477931831	1
5	6230	4.254482879806	1
5	6400	4.354481060508	1
5	6570	4.454479241209	1
5	6740	4.554477421904	1
5	6910	4.654488602586	1
5	7080	4.754486783255	1
5	7250	4.854484963907	1
5	7420	4.95448314454	1
5	7594	5.05448132515	1
5	7764	5.154479505739	1
5	8016	5.254484641682	1
5	8186	5.354482822222	1
5	8356	5.454481002735	1
5	8526	5.554479183222	1
5	8696	5.654477363684	1
5	8866	5.754488544118	1
5	9036	5.854486724527	1
5	9206	5.95448490491	1
5	9380	6.054483085268	1
5	9550	6.1544812656	1
5	9802	6.254486593703	1
5	9972	6.354484773985	1
5	10142	6.454482954242	1
5	10312	6.554481134476	1
5	10482	6.654479314688	1
5	10652	6.754477494875	1
5	10822	6.854488675041	1
5	10992	6.954486855185	1
5	11166	7.054485035309	1
5	11336	7.154483215411	1
5	11588	7.254488737985	1
5	11758	7.354486918046	1
5	11928	7.454485098087	1
5	12098	7.554483278109	1
5	12268	7.654481458112	1
5	12438	7.754479638095	1
5	12608	7.854477818059	1
5	12778	7.954488998005	1
5	12952	8.054487177932	1
5	13122	8.154485357842	1
5	13374	8.254478076454	1
5	13544	8.354489256326	1
5	13714	8.45448743618	1
5	13884	8.554485616017	1
5	14054	8.654483795837	1
5	14224	8.75448197564	1
5	14394	8.854480155424	1
5	14564	8.954478335191	1
5	14738	9.054489514941	1
5	14908	9.154487694674	1
5	15160	9.254480610436	1
5	15330	9.354478790134	1
5	15500	9.454476969815	1
5	15670	9.554488149479	1
5	15840	9.654486329126	1
5	16010	9.754484508757	1
5	16180	9.854482689513	1
5	16350	9.954480869401	1
5	16524	10.054479051126	1
5	16694	10.154477231401	1
5	16946	10.254483344377	1
5	17116	10.354481526044	1
5	17286	10.45447970807	1
5	17456	10.554477888281	1
5	17626	10.654489070045	1
5	17986	10.754485435561	1
5	18156	10.854483614776	1
5	18326	10.954481796492	1
5	18500	11.054479978696	1
5	18670	11.154478160466	1
5	18922	11.254484475034	1
5	19092	11.35448265674	1
5	19262	11.454480838426	1
5	19432	11.554479020103	1
5	19601	11.654477201787	1
5	19771	11.754488383491	1
5	19941	11.854486565235	1
5	20111	11.954484747036	1
5	20285	12.054482928913	1
5	20454	12.154481110886	1
5	20705	12.254487621041	1
5	20875	12.354485803263	1
5	21045	12.45448398564	1
5	21214	12.554482168192	1
5	21384	12.654480350939	1
5	21553	12.754478533899	1
5	21720	12.854476717091	1
5	21890	12.954487900537	1
5	22062	13.054486084252	1
5	22228	13.154484268256	1
5	22478	13.254477965247	1
5	22645	13.35448914988	1
5	22812	13.454487334851	1
5	22978	13.554485520176	1
5	23146	13.65448370587	1
5	23313	13.75448189195	1
5	23479	13.85448007843	1
5	23646	13.954478265324	1
5	23816	14.054489452644	1
5	23982	14.154487640404	1
5	24230	14.254481514707	1
5	24397	14.354479703395	1
5	24563	14.454477892571	1
5	24729	14.55448908225	1
5	24895	14.654487272449	1
5	25061	14.754485463186	1
5	25227	14.854483654474	1
5	25393	14.954481846331	1
5	25563	15.054480038771	1
5	25729	15.154478231807	1
5	25968	15.254485275004	1
5	26134	15.354483469273	1
5	26300	15.454481664178	1
5	26466	15.554479859726	1
5	26632	15.654478055926	1
5	26798	15.754489252788	1
5	26964	15.854487450318	1
5	27130	15.954485648524	1
5	27300	16.054483847409	1
5	27466	16.154482046978	1
5	27693	16.25448925544	1
5	27859	16.354487456389	1
5	28025	16.45448565803	1
5	28191	16.554483860367	1
5	28357	16.654482063399	1
5	28523	16.754480267127	1
5	28689	16.85447847155	1
5	28855	16.954476676669	1
5	29025	17.05448788248	1
5	29191	17.154486088985	1
5	29415	17.254480462461	1
5	29581	17.354478670346	1
5	29747	17.454476878916	1
5	29913	17.55448808817	1
5	30079	17.654486298106	1
5	30245	17.754484508721	1
5	30411	17.854482720011	1
5	30577	17.954480931973	1
5	30747	18.054479144603	1
5	30913	18.154477357899	1
5	31137	18.25448489687	1
5	31303	18.354483111485	1
5	31469	18.454481326754	1
5	31635	18.554479542674	1
5	31801	18.654477759241	1
5	31967	18.754488976451	1
5	32133	18.854487194301	1
5	32299	18.954485412785	1
5	32469	19.054483631901	1
5	32635	19.154481851644	1
5	32859	19.254476556406	1
5	33025	19.354487777392	1
5	33191	19.454485998993	1
5	33357	19.554484221206	1
5	33523	19.654482444025	1
5	33689	19.754480667447	1
5	33855	19.854478891468	1
5	34021	19.954477116083	1
5	34191	20.054488341288	1
5	34357	20.154486567079	1
5	34581	20.254481437747	1
5	34810	20.354487744916	1
5	34976	20.45448597244	1
5	35142	20.554484200531	1
5	35308	20.654482429187	1
5	35474	20.754480658404	1
5	35640	20.854478888175	1
5	35806	20.954477118498	1
5	35976	21.054488349368	1
5	36142	21.15448658078	1
5	36366	21.254481617412	1
5	36532	21.354479849895	1
5	36698	21.454478082908	1
5	36864	21.554489316446	1
5	37030	21.654487550504	1
5	37196	21.754485785078	1
5	37362	21.854484020162	1
5	37528	21.954482255755	1
5	37698	22.05448049185	1
5	37864	22.154478728443	1
5	38088	22.254486931092	1
5	38254	22.354485168668	1
5	38420	22.454483406728	1
5	38586	22.55448164527	1
5	38752	22.654479884289	1
5	39108	22.754489372061	1
5	39274	22.854487612018	1
5	39440	22.954485852438	1
5	39610	23.054484093317	1
5	39776	23.154482334648	1
5	40000	23.254477703372	1
5	40166	23.354488945601	1
5	40332	23.45448718827	1
5	40498	23.554485431376	1
5	40664	23.654483674914	1
5	40830	23.754481918882	1
5	40996	23.854480163274	1
5	41162	23.954478408084	1
5	41332	24.054476653311	1
5	41498	24.154487898952	1
5	41722	24.254483433804	1
5	41888	24.354481680255	1
5	42054	24.454479927103	1
5	42220	24.554478174349	1
5	42386	24.654489421986	1
5	42552	24.754487670009	1
5	42718	24.854485918417	1
5	42884	24.954484167204	1
5	43053	25.054482416365	1
[...]
10	63372	37.854487121889	0.099998273604
10	63526	37.954485395428	0.099998273539
10	63684	38.054483668937	0.099998273509
10	63838	38.154481942436	0.099998273499
10	64026	38.254480215967	0.099998273531
10	64180	38.354478489496	0.099998273529
10	64334	38.454476762984	0.099998273488
10	64488	38.554488036446	0.100011273462
10	64642	38.654486309917	0.099998273471
10	64796	38.754484583335	0.099998273418
10	64950	38.854482856798	0.099998273463
10	65104	38.954481130321	0.099998273523
10	65262	39.054479403807	0.099998273486
10	65416	39.154477677328	0.099998273521
10	65604	39.254488950914	0.100011273586
10	65758	39.354487224559	0.099998273645
10	65912	39.454485498419	0.09999827386
10	66066	39.554483772474	0.099998274055
10	66220	39.654482046697	0.099998274223
10	66374	39.754480321176	0.099998274479
10	66528	39.854478595904	0.099998274728
10	66682	39.954476870943	0.099998275039
10	66840	40.05448814632	0.100011275377
10	66994	40.154486421863	0.099998275543
10	67182	40.254484697595	0.099998275732
10	67336	40.354482973481	0.099998275886
10	67490	40.454481249425	0.099998275944
10	67644	40.554479525426	0.099998276001
10	67798	40.654477801482	0.099998276056
10	67952	40.754489077592	0.10001127611
10	68106	40.854487353757	0.099998276165
10	68260	40.954485629976	0.099998276219
10	68418	41.054483906248	0.099998276272
10	68572	41.154482182572	0.099998276324
10	68760	41.254480458948	0.099998276376
10	68914	41.354478735375	0.099998276427
10	69068	41.454477011852	0.099998276477
10	69222	41.554488288378	0.100011276526
10	69376	41.654486564953	0.099998276575
11	884	1.254478763535	3
11	1054	1.354476941346	3
11	1224	1.454488119235	3
11	1394	1.554486297221	3
11	1564	1.654484475322	3
11	1734	1.754482653548	3
11	1904	1.85448083191	3
11	2074	1.954479010415	3
11	2248	2.05447718907	3
11	2418	2.154488367876	3
11	2670	2.254479979806	3
11	2840	2.354478158919	3
11	3010	2.454489338186	3
11	3180	2.554487517606	3
11	3350	2.654485697173	3
11	3520	2.754483876882	3
11	3690	2.854482056724	3
11	3860	2.954480236691	3
11	4034	3.054478416773	3
11	4204	3.15447659696	3
11	4456	3.254481366433	3
11	4626	3.354479546799	3
11	4796	3.454477727239	3
11	4966	3.554488907742	3
11	5136	3.654487088299	3
11	5306	3.754485268899	3
11	5476	3.854483449536	3
11	5646	3.9544816302	3
11	5820	4.054479810884	3
11	5990	4.154477991581	3
11	6242	4.254482939558	3
11	6412	4.354481120263	3
11	6582	4.454479300965	3
11	6752	4.554477481659	3
11	6922	4.654488662341	3
11	7092	4.754486843009	3
11	7262	4.85448502366	3
11	7432	4.95448320429	3
11	7606	5.054481384899	3
11	7776	5.154479565485	3
11	8028	5.254484701425	3
11	8198	5.354482881962	3
11	8368	5.454481062472	3
11	8538	5.554479242956	3
11	8708	5.654477423415	3
11	8878	5.754488603847	3
11	9048	5.854486784253	3
11	9218	5.954484964633	3
11	9392	6.054483144988	3
11	9562	6.154481325317	3
11	9814	6.254486653418	3
11	9984	6.354484833698	3
11	10154	6.454483013953	3
11	10324	6.554481194185	3
11	10494	6.654479374395	3
11	10664	6.75447755458	3
11	10834	6.854488734744	3
11	11004	6.954486914887	3
11	11178	7.054485095009	3
11	11348	7.15448327511	3
11	11600	7.254488797682	3
11	11770	7.354486977741	3
11	11940	7.454485157781	3
11	12110	7.554483337802	3
11	12280	7.654481517804	3
11	12450	7.754479697785	3
11	12620	7.854477877748	3
11	12790	7.954489057693	3
11	12964	8.05448723762	3
11	13134	8.154485417528	3
11	13386	8.254478136138	3
11	13556	8.354489316009	3
11	13726	8.454487495863	3
11	13896	8.554485675699	3
11	14066	8.654483855518	3
11	14236	8.754482035319	3
11	14406	8.854480215102	3
11	14576	8.954478394868	3
11	14750	9.054489574617	3
11	14920	9.154487754348	3
11	15172	9.254480670109	3
11	15342	9.354478849806	3
11	15512	9.454477029486	3
11	15682	9.554488209148	3
11	15852	9.654486388794	3
11	16022	9.754484568423	3
11	16192	9.854482749116	3
11	16362	9.954480927574	3
11	16536	10.054479106464	3
11	16706	10.154477288184	3
11	16958	10.254483402858	3
11	17128	10.354481584067	3
11	17298	10.454479766736	3
11	17468	10.554477947078	3
11	17638	10.654489128972	3
11	17998	10.754485493238	3
11	18168	10.854483674259	3
11	18338	10.954481857338	3
11	18512	11.054480039138	3
11	18682	11.154478220899	3
11	18934	11.254484535459	3
11	19104	11.354482717158	3
11	19274	11.454480898837	3
11	19444	11.554479080511	3
11	19613	11.654477262193	3
11	19783	11.754488443901	3
11	19953	11.85448662565	3
11	20123	11.954484807462	3
11	20297	12.054482989354	3
11	20466	12.154481171345	3
11	20717	12.254487681524	3
11	20887	12.354485863774	3
11	21057	12.454484046184	3
11	21226	12.554482228774	3
11	21396	12.654480411563	3
11	21565	12.75447859457	3
11	21732	12.854476777815	3
11	21902	12.954487961317	3
11	22074	13.054486145094	3
11	22240	13.154484329164	3
11	22490	13.254478026227	3
11	22657	13.354489210935	3
11	22824	13.454487395986	3
11	22990	13.554485581395	3
11	23158	13.654483767179	3
11	23325	13.754481953352	3
11	23491	13.854480139929	3
11	23658	13.954478326924	3
11	23828	14.05448951435	3
11	23994	14.15448770222	3
11	24242	14.254481576637	3
11	24409	14.354479765444	3
11	24575	14.454477954744	3
11	24741	14.554489144552	3
11	24907	14.654487334885	3
11	25073	14.75448552576	3
11	25239	14.854483717193	3
11	25405	14.954481909199	3
11	25575	15.054480101792	3
11	25741	15.154478294987	3
11	25980	15.254485338346	3
11	26146	15.354483532783	3
11	26312	15.454481727858	3
11	26478	15.55447992358	3
11	26644	15.654478119958	3
11	26810	15.754489317001	3
11	26976	15.854487514716	3
11	27142	15.954485713108	3
11	27312	16.054483912183	3
11	27478	16.154482111944	3
11	27705	16.254489320599	3
11	27871	16.354487521743	3
11	28037	16.454485723581	3
11	28203	16.554483926117	3
11	28369	16.654482129349	3
11	28535	16.754480333278	3
11	28701	16.854478537903	3
11	28867	16.954476743225	3
11	29037	17.05448794924	3
11	29203	17.154486155949	3
11	29427	17.254480529631	3
11	29593	17.35447873772	3
11	29759	17.454476946496	3
11	29925	17.554488155956	3
11	30091	17.654486366098	3
11	30257	17.754484576919	3
11	30423	17.854482788415	3
11	30589	17.954481000583	3
11	30759	18.054479213419	3
11	30925	18.15447742692	3
11	31149	18.254484966097	3
11	31315	18.354483180917	3
11	31481	18.454481396391	3
11	31647	18.554479612516	3
11	31813	18.654477829287	3
11	31979	18.754489046701	3
11	32145	18.854487264754	3
11	32311	18.954485483441	3
11	32481	19.054483702759	3
11	32647	19.154481922704	3
11	32871	19.254476627667	3
11	33037	19.354487848853	3
11	33203	19.454486070654	3
11	33369	19.554484293066	3
11	33535	19.654482516084	3
11	33701	19.754480739703	3
11	33867	19.854478963921	3
11	34033	19.954477188732	3
11	34203	20.054488414133	3
11	34369	20.154486640118	3
11	34596	20.254481510979	3
11	34822	20.354487818341	3
11	34988	20.454486046056	3
11	35154	20.554484274338	3
11	35320	20.654482503184	3
11	35486	20.754480732589	3
11	35652	20.854478962548	3
11	35818	20.954477193058	3
11	35988	21.054488424113	3
11	36154	21.154486655711	3
11	36378	21.254481692526	3
11	36544	21.354479925192	3
11	36710	21.454478158386	3
11	36876	21.554489392104	3
11	37042	21.654487626341	3
11	37208	21.754485861093	3
11	37374	21.854484096355	3
11	37540	21.954482332123	3
11	37710	22.054480568392	3
11	37876	22.154478805159	3
11	38100	22.25448700798	3
11	38266	22.354485245727	3
11	38432	22.454483483957	3
11	38598	22.554481722668	3
11	38764	22.654479961854	3
11	39120	22.754489449792	3
11	39286	22.854487689914	3
11	39452	22.954485930498	3
11	39622	23.054484171539	3
11	39788	23.154482413032	3
11	40012	23.254477781916	3
11	40178	23.354489024303	3
11	40344	23.454487267129	3
11	40510	23.554485510392	3
11	40676	23.654483754085	3
11	40842	23.754481998206	3
11	41008	23.85448024275	3
11	41174	23.954478487712	3
11	41344	24.054476733089	3
11	41510	24.154487978878	3
11	41734	24.254483513878	3
11	41900	24.354481760474	3
11	42066	24.454480007468	3
11	42232	24.554478254858	3
11	42398	24.654489502636	3
11	42564	24.754487750801	3
11	42730	24.854485999349	3
11	42896	24.954484248274	3
11	43065	25.054482497573	3
11	43228	25.154480747242	3
11	43443	25.254482359029	3
11	43606	25.354480609427	3
11	43769	25.454478860183	3
11	43929	25.554477111294	3
11	44089	25.654488362756	3
11	44249	25.754486614564	3
11	44409	25.854484866717	3
11	44569	25.954483119209	3
11	44730	26.054481372037	3
11	44887	26.154479625198	3
11	45084	26.254480235745	3
11	45241	26.354478489561	3
11	45398	26.454476743698	3
11	45552	26.554487998154	3
11	45706	26.654486252925	3
11	45860	26.754484508007	3
11	46014	26.854482763395	3
11	46168	26.954481019089	3
11	46326	27.054479275083	3
11	46480	27.154477531376	3
11	46668	27.254488787962	3
11	46822	27.354487044839	3
11	46976	27.454485302003	3
11	47130	27.554483559452	3
11	47284	27.654481817183	3
11	47438	27.754480075191	3
11	47592	27.854478333476	3
11	47746	27.954489592032	3
11	47904	28.054487850856	3
11	48058	28.154486109947	3
11	48246	28.2544843693	3
11	48400	28.354482628912	3
11	48554	28.45448088878	3
11	48708	28.554479148903	3
11	48862	28.654477409277	3
11	49016	28.754488669897	3
11	49170	28.854486930762	3
11	49324	28.954485191869	3
11	49482	29.054483453216	3
11	49636	29.154481714799	3
11	49824	29.254479976616	3
11	49978	29.354478238663	3
11	50132	29.454489500939	3
11	50286	29.554487763441	3
11	50440	29.654486026166	3
11	50594	29.754484289111	3
11	50748	29.854482552274	3
11	50902	29.954480815652	3
11	51060	30.054479079244	3
11	51214	30.154477343044	3
11	51402	30.254488607052	3
11	51556	30.354486871265	3
11	51710	30.454485135681	3
11	51864	30.554483400297	3
11	52018	30.654481665111	3
11	52172	30.75447993012	3
11	52326	30.854478195321	3
11	52480	30.954489460715	3
11	52638	31.054487726297	3
11	52792	31.154485992064	3
11	52980	31.254484258015	3
11	53134	31.354482524149	3
11	53288	31.454480790462	3
11	53442	31.554479056953	3
11	53596	31.654477323618	3
11	53750	31.754488590456	3
11	53904	31.854486857466	3
11	54058	31.954485124644	3
11	54216	32.054483391989	3
11	54370	32.154481659499	3
11	54558	32.254479927172	3
11	54712	32.354478195006	3
11	54866	32.454489462998	3
11	55020	32.554487731147	3
11	55174	32.65448599945	3
11	55328	32.754484267908	3
11	55482	32.854482536516	3
11	55636	32.954480805274	3
11	55794	33.054479074179	3
11	55948	33.15447734323	3
11	56136	33.254488612425	3
11	56290	33.354486881761	3
11	56444	33.454485151238	3
11	56598	33.554483420853	3
11	56752	33.654481690606	3
11	56906	33.754479960494	3
11	57060	33.854478230515	3
11	57214	33.954489500668	3
11	57372	34.05448777095	3
11	57526	34.154486041362	3
11	57714	34.254484311901	3
11	57868	34.354482582564	3
11	58022	34.454480853352	3
11	58176	34.554479124262	3
11	58330	34.654477395292	3
11	58484	34.754488666442	3
11	58638	34.854486937709	3
11	58792	34.954485209092	3
11	58950	35.05448348059	3
11	59104	35.154481752202	3
11	59292	35.254480023926	3
11	59446	35.35447829576	3
11	59600	35.454489567702	3
11	59754	35.554487839752	3
11	59908	35.654486111908	3
11	60062	35.75448438417	3
11	60216	35.854482656537	3
11	60370	35.954480929005	3
11	60528	36.054479201573	3
11	60682	36.154477474241	3
11	60870	36.254488747007	3
11	61024	36.354487019871	3
11	61178	36.454485292832	3
11	61332	36.554483565887	3
11	61486	36.654481839036	3
11	61640	36.754480112278	3
11	61794	36.854478385611	3
11	61948	36.954476659034	3
11	62106	37.054487932546	3
11	62260	37.154486206145	3
11	62448	37.254484479819	3
11	62602	37.354482753497	3
11	62756	37.454481027184	3
11	62910	37.554479300885	3
11	63064	37.654477574606	3
11	63218	37.754488848285	3
11	63372	37.854487121889	3
11	63526	37.954485395428	3
11	63684	38.054483668937	3
11	63838	38.154481942436	3
11	64026	38.254480215967	3
11	64180	38.354478489496	3
11	64334	38.454476762984	3
11	64488	38.554488036446	3
11	64642	38.654486309917	3
11	64796	38.754484583335	3
11	64950	38.854482856798	3
11	65104	38.954481130321	3
11	65262	39.054479403807	3
11	65416	39.154477677328	3
11	65604	39.254488950914	3
11	65758	39.354487224559	3
11	65912	39.454485498419	3
11	66066	39.554483772474	3
11	66220	39.654482046697	3
11	66374	39.754480321176	3
11	66528	39.854478595904	3
11	66682	39.954476870943	3
11	66840	40.05448814632	3
11	66994	40.154486421863	3
11	67182	40.254484697595	3
11	67336	40.354482973481	3
11	67490	40.454481249425	3
11	67644	40.554479525426	3
11	67798	40.654477801482	3
11	67952	40.754489077592	3
11	68106	40.854487353757	3
11	68260	40.954485629976	3
11	68418	41.054483906248	3
11	68572	41.154482182572	3
11	68760	41.254480458948	3
11	68914	41.354478735375	3
11	69068	41.454477011852	3
11	69222	41.554488288378	3
11	69376	41.654486564953	3
12	2084	2	0
12	3870	3	0
12	5656	4	0
12	7442	5	0
12	9228	6	0
12	11014	7	0
12	12800	8	0
12	14586	9	0
12	16372	10	0
12	18348	11	0
12	20133	12	0
12	21911	13	0
12	23667	14	0
12	25414	15	0
12	27151	16	0
12	28876	17	0
12	30598	18	0
12	32320	19	0
12	34042	20	0
12	35827	21	0
12	37549	22	0
12	39461	23	0
12	41183	24	0
12	42905	25	0
12	44576	26	0
12	46175	27	0
12	47753	28	0
12	49331	29	0
12	50909	30	0
12	52487	31	0
12	54065	32	0
12	55643	33	0
12	57221	34	0
12	58799	35	0
12	60377	36	0
12	61955	37	0
12	63533	38	0
12	65111	39	0
12	66689	40	0
12	68267	41	0
13	2084	2	0.01189235551
13	3870	3	0.012586
13	5656	4	0.012586
13	7442	5	0.012586
13	9228	6	0.012586
13	11014	7	0.012586
13	12800	8	0.012586
13	14586	9	0.012586
13	16372	10	0.012586
13	18348	11	0.013021360726
13	20133	12	0.012586
13	21911	13	0.012586
13	23667	14	0.012586
13	25414	15	0.012586
13	27151	16	0.012586
13	28876	17	0.012586
13	30598	18	0.012586
13	32320	19	0.012586
13	34042	20	0.012586
13	35827	21	0.01273
13	37549	22	0.012586
13	39461	23	0.013021487682
13	41183	24	0.012586
13	42905	25	0.012586
13	44576	26	0.01249
13	46175	27	0.01249
13	47753	28	0.01249
13	49331	29	0.01249
13	50909	30	0.01249
13	52487	31	0.01249
13	54065	32	0.01249
13	55643	33	0.01249
13	57221	34	0.01249
13	58799	35	0.01249
13	60377	36	0.01249
13	61955	37	0.01249
13	63533	38	0.01249
13	65111	39	0.01249
13	66689	40	0.01249
13	68267	41	0.01249
14	2084	2	0
14	3870	3	0
14	5656	4	0
14	7442	5	0
14	9228	6	0
14	11014	7	0
14	12800	8	0
14	14586	9	0
14	16372	10	0
14	18348	11	0
14	20133	12	0
14	21911	13	0
14	23667	14	0
14	25414	15	0
14	27151	16	0
14	28876	17	0
14	30598	18	0
14	32320	19	0
14	34042	20	0
14	35827	21	0
14	37549	22	0
14	39461	23	0
14	41183	24	0
14	42905	25	0
14	44576	26	0
14	46175	27	0
14	47753	28	0
14	49331	29	0
14	50909	30	0
14	52487	31	0
14	54065	32	0
14	55643	33	0
14	57221	34	0
14	58799	35	0
14	60377	36	0
14	61955	37	0
14	63533	38	0
14	65111	39	0
14	66689	40	0
14	68267	41	0
15	2085	2	1
15	3871	3	1
15	5657	4	1
15	7443	5	1
15	9229	6	1
15	11015	7	1
15	12801	8	1
15	14587	9	1
15	16373	10	1
15	18349	11	1
15	20134	12	1
15	21912	13	1
15	23668	14	1
15	25415	15	1
15	27152	16	1
15	28877	17	1
15	30599	18	1
15	32321	19	1
15	34043	20	1
15	35828	21	1
15	37550	22	1
15	39462	23	1
15	41184	24	1
15	42906	25	1
15	44577	26	1
15	46176	27	1
15	47754	28	1
15	49332	29	1
15	50910	30	1
15	52488	31	1
15	54066	32	1
15	55644	33	1
15	57222	34	1
15	58800	35	1
15	60378	36	1
15	61956	37	1
15	63534	38	1
15	65112	39	1
15	66690	40	1
15	68268	41	1
16	2085	2	0.011762059262
16	3871	3	0.012586
16	5657	4	0.012586
16	7443	5	0.012586
16	9229	6	0.012586
16	11015	7	0.012586
16	12801	8	0.012586
16	14587	9	0.012586
16	16373	10	0.012586
16	18349	11	0.012954
16	20134	12	0.012586
16	21912	13	0.012586
16	23668	14	0.012586
16	25415	15	0.012586
16	27152	16	0.012586
16	28877	17	0.012586
16	30599	18	0.012586
16	32321	19	0.012586
16	34043	20	0.012586
16	35828	21	0.012731080218
16	37550	22	0.012586
16	39462	23	0.012954
16	41184	24	0.012586
16	42906	25	0.012586
16	44577	26	0.012586
16	46176	27	0.01249
16	47754	28	0.01249
16	49332	29	0.01249
16	50910	30	0.01249
16	52488	31	0.01249
16	54066	32	0.01249
16	55644	33	0.01249
16	57222	34	0.01249
16	58800	35	0.01249
16	60378	36	0.01249
16	61956	37	0.01249
16	63534	38	0.01249
16	65112	39	0.01249
16	66690	40	0.01249
16	68268	41	0.01249
17	2085	2	0
17	3871	3	0
17	5657	4	0
17	7443	5	0
17	9229	6	0
17	11015	7	0
17	12801	8	0
17	14587	9	0
17	16373	10	0
17	18349	11	0
17	20134	12	0
17	21912	13	0
17	23668	14	0
17	25415	15	0
17	27152	16	0
17	28877	17	0
17	30599	18	0
17	32321	19	0
17	34043	20	0
17	35828	21	0
17	37550	22	0
17	39462	23	0
17	41184	24	0
17	42906	25	0
17	44577	26	0
17	46176	27	0
17	47754	28	0
17	49332	29	0
17	50910	30	0
17	52488	31	0
17	54066	32	0
17	55644	33	0
17	57222	34	0
17	58800	35	0
17	60378	36	0
17	61956	37	0
17	63534	38	0
17	65112	39	0
17	66690	40	0
17	68268	41	0
18	2086	2	2
18	3872	3	2
18	5658	4	2
18	7444	5	2
18	9230	6	2
18	11016	7	2
18	12802	8	2
18	14588	9	2
18	16374	10	2
18	18350	11	2
18	20135	12	2
18	21913	13	2
18	23669	14	2
18	25416	15	2
18	27153	16	2
18	28878	17	2
18	30600	18	2
18	32322	19	2
18	34044	20	2
18	35829	21	2
18	37551	22	2
18	39463	23	2
18	41185	24	2
18	42907	25	2
18	44578	26	2
18	46177	27	2
18	47755	28	2
18	49333	29	2
18	50911	30	2
18	52489	31	2
18	54067	32	2
18	55645	33	2
18	57223	34	2
18	58801	35	2
18	60379	36	2
18	61957	37	2
18	63535	38	2
18	65113	39	2
18	66691	40	2
18	68269	41	2
19	2086	2	0.011762118504
19	3872	3	0.012586
19	5658	4	0.012586
19	7444	5	0.012586
19	9230	6	0.012586
19	11016	7	0.012586
19	12802	8	0.012586
19	14588	9	0.012586
19	16374	10	0.012586
19	18350	11	0.012954
19	20135	12	0.012586
19	21913	13	0.012586
19	23669	14	0.012586
19	25416	15	0.012586
19	27153	16	0.012586
19	28878	17	0.012586
19	30600	18	0.012586
19	32322	19	0.012586
19	34044	20	0.012586
19	35829	21	0.012698
19	37551	22	0.012586
19	39463	23	0.012954
19	41185	24	0.012586
19	42907	25	0.012586
19	44578	26	0.012586
19	46177	27	0.01249
19	47755	28	0.01249
19	49333	29	0.01249
19	50911	30	0.01249
19	52489	31	0.01249
19	54067	32	0.01249
19	55645	33	0.01249
19	57223	34	0.01249
19	58801	35	0.01249
19	60379	36	0.01249
19	61957	37	0.01249
19	63535	38	0.01249
19	65113	39	0.01249
19	66691	40	0.01249
19	68269	41	0.01249
20	2086	2	0
20	3872	3	0
20	5658	4	0
20	7444	5	0
20	9230	6	0
20	11016	7	0
20	12802	8	0
20	14588	9	0
20	16374	10	0
20	18350	11	0
20	20135	12	0
20	21913	13	0
20	23669	14	0
20	25416	15	0
20	27153	16	0
20	28878	17	0
20	30600	18	0
20	32322	19	0
20	34044	20	0
20	35829	21	0
20	37551	22	0
20	39463	23	0
20	41185	24	0
20	42907	25	0
20	44578	26	0
20	46177	27	0
20	47755	28	0
20	49333	29	0
20	50911	30	0
20	52489	31	0
20	54067	32	0
20	55645	33	0
20	57223	34	0
20	58801	35	0
20	60379	36	0
20	61957	37	0
20	63535	38	0
20	65113	39	0
20	66691	40	0
20	68269	41	0
21	2087	2	3
21	3873	3	3
21	5659	4	3
21	7445	5	3
21	9231	6	3
21	11017	7	3
21	12803	8	3
21	14589	9	3
21	16375	10	3
21	18351	11	3
21	20136	12	3
21	21914	13	3
21	23670	14	3
21	25417	15	3
21	27154	16	3
21	28879	17	3
21	30601	18	3
21	32323	19	3
21	34045	20	3
21	35830	21	3
21	37552	22	3
21	39464	23	3
21	41186	24	3
21	42908	25	3
21	44579	26	3
21	46178	27	3
21	47756	28	3
21	49334	29	3
21	50912	30	3
21	52490	31	3
21	54068	32	3
21	55646	33	3
21	57224	34	3
21	58802	35	3
21	60380	36	3
21	61958	37	3
21	63536	38	3
21	65114	39	3
21	66692	40	3
21	68270	41	3
22	2087	2	0.011761177744
22	3873	3	0.012586
22	5659	4	0.012586
22	7445	5	0.012586
22	9231	6	0.012586
22	11017	7	0.012586
22	12803	8	0.012586
22	14589	9	0.012586
22	16375	10	0.012586
22	18351	11	0.012954
22	20136	12	0.012586
22	21914	13	0.012586
22	23670	14	0.012586
22	25417	15	0.012586
22	27154	16	0.012586
22	28879	17	0.012586
22	30601	18	0.012586
22	32323	19	0.012586
22	34045	20	0.012586
22	35830	21	0.012698
22	37552	22	0.012586
22	39464	23	0.012954
22	41186	24	0.012586
22	42908	25	0.012586
22	44579	26	0.012586
22	46178	27	0.012586
22	47756	28	0.01249
22	49334	29	0.01249
22	50912	30	0.01249
22	52490	31	0.01249
22	54068	32	0.01249
22	55646	33	0.01249
22	57224	34	0.01249
22	58802	35	0.01249
22	60380	36	0.01249
22	61958	37	0.01249
22	63536	38	0.01249
22	65114	39	0.01249
22	66692	40	0.01249
22	68270	41	0.01249
23	2087	2	0
23	3873	3	0
23	5659	4	0
23	7445	5	0
23	9231	6	0
23	11017	7	0
23	12803	8	0
23	14589	9	0
23	16375	10	0
23	18351	11	0
23	20136	12	0
23	21914	13	0
23	23670	14	0
23	25417	15	0
23	27154	16	0
23	28879	17	0
23	30601	18	0
23	32323	19	0
23	34045	20	0
23	35830	21	0
23	37552	22	0
23	39464	23	0
23	41186	24	0
23	42908	25	0
23	44579	26	0
23	46178	27	0
23	47756	28	0
23	49334	29	0
23	50912	30	0
23	52490	31	0
23	54068	32	0
23	55646	33	0
23	57224	34	0
23	58802	35	0
23	60380	36	0
23	61958	37	0
23	63536	38	0
23	65114	39	0
23	66692	40	0
23	68270	41	0

